REMARK  10 active torsions:
REMARK  status: ('A' for Active; 'I' for Inactive)
REMARK    1  A    between atoms: S_1  and  C_33 
REMARK    2  A    between atoms: N_9  and  C_12 
REMARK       I    between atoms: N_9  and  C_16 
REMARK    3  A    between atoms: N_10  and  C_15 
REMARK    4  A    between atoms: N_10  and  C_20 
REMARK    5  A    between atoms: C_15  and  C_16 
REMARK    6  A    between atoms: C_15  and  C_18 
REMARK    7  A    between atoms: C_18  and  C_19 
REMARK    8  A    between atoms: C_20  and  C_23 
REMARK    9  A    between atoms: C_20  and  C_24 
REMARK   10  A    between atoms: C_27  and  C_30 
ROOT
HETATM    1  N   UNL     1       5.291  -2.269   3.340  1.00  0.00    -0.195 NA
HETATM    2  C   UNL     1       4.002  -2.943   1.190  1.00  0.00     0.122 A 
HETATM    3  C   UNL     1       3.468  -4.340   1.109  1.00  0.00     0.050 A 
HETATM    4  C   UNL     1       4.648  -3.936   0.274  1.00  0.00     0.050 A 
HETATM    5  C   UNL     1       4.715  -2.570   2.379  1.00  0.00     0.091 C 
ENDROOT
BRANCH   2   6
HETATM    6  N   UNL     1       3.237  -1.866   0.630  1.00  0.00    -0.337 N 
HETATM    7  C   UNL     1       3.820  -0.679   0.204  1.00  0.00     0.252 C 
HETATM    8  O   UNL     1       5.024  -0.435   0.262  1.00  0.00    -0.271 OA
HETATM    9  H   UNL     1       2.232  -1.996   0.559  1.00  0.00     0.164 HD
BRANCH   7  10
HETATM   10  C   UNL     1       2.795   0.292  -0.374  1.00  0.00     0.316 C 
BRANCH  10  11
HETATM   11  N   UNL     1       2.811   1.494   0.456  1.00  0.00     0.115 N 
HETATM   12  H   UNL     1       3.743   1.909   0.442  1.00  0.00     0.318 HD
BRANCH  11  13
HETATM   13  C   UNL     1       1.846   2.470  -0.028  1.00  0.00     0.361 C 
BRANCH  13  14
HETATM   14  C   UNL     1       0.435   1.916  -0.015  1.00  0.00    -0.016 A 
HETATM   15  C   UNL     1      -0.245   1.776  -1.210  1.00  0.00     0.010 A 
HETATM   16  C   UNL     1      -1.543   1.266  -1.198  1.00  0.00     0.013 A 
HETATM   17  C   UNL     1      -2.139   0.906   0.011  1.00  0.00    -0.026 A 
HETATM   18  C   UNL     1      -1.436   1.055   1.206  1.00  0.00     0.013 A 
HETATM   19  C   UNL     1      -0.138   1.564   1.194  1.00  0.00     0.010 A 
BRANCH  17  20
HETATM   20  C   UNL     1      -3.485   0.376   0.024  1.00  0.00    -0.026 A 
HETATM   21  C   UNL     1      -3.961  -0.347  -1.070  1.00  0.00     0.014 A 
HETATM   22  C   UNL     1      -5.259  -0.857  -1.058  1.00  0.00     0.024 A 
HETATM   23  C   UNL     1      -6.082  -0.643   0.048  1.00  0.00     0.058 A 
HETATM   24  C   UNL     1      -5.606   0.080   1.142  1.00  0.00     0.024 A 
HETATM   25  C   UNL     1      -4.308   0.590   1.130  1.00  0.00     0.014 A 
BRANCH  23  26
HETATM   26  S   UNL     1      -7.707  -1.281   0.064  1.00  0.00     0.171 S 
HETATM   27  O   UNL     1      -8.499  -0.468   0.975  1.00  0.00    -0.223 OA
HETATM   28  O   UNL     1      -8.153  -1.470  -1.310  1.00  0.00    -0.223 OA
HETATM   29  C   UNL     1      -7.539  -2.900   0.780  1.00  0.00     0.167 C 
ENDBRANCH  23  26
ENDBRANCH  17  20
ENDBRANCH  13  14
BRANCH  13  30
HETATM   30  C   UNL     1       1.969   3.776   0.750  1.00  0.00     0.422 C 
HETATM   31  F   UNL     1       1.141   4.716   0.237  1.00  0.00    -0.168 F 
HETATM   32  F   UNL     1       1.620   3.605   2.045  1.00  0.00    -0.168 F 
HETATM   33  F   UNL     1       3.221   4.280   0.722  1.00  0.00    -0.168 F 
ENDBRANCH  13  30
ENDBRANCH  11  13
ENDBRANCH  10  11
BRANCH  10  34
HETATM   34  C   UNL     1       3.147   0.592  -1.842  1.00  0.00     0.088 C 
BRANCH  34  35
HETATM   35  C   UNL     1       3.226  -0.627  -2.781  1.00  0.00     0.098 C 
HETATM   36  F   UNL     1       4.100  -1.530  -2.247  1.00  0.00    -0.244 F 
HETATM   37  C   UNL     1       3.720  -0.276  -4.180  1.00  0.00     0.051 C 
HETATM   38  C   UNL     1       1.866  -1.318  -2.859  1.00  0.00     0.051 C 
ENDBRANCH  34  35
ENDBRANCH  10  34
ENDBRANCH   7  10
ENDBRANCH   2   6
TORSDOF 10
