REMARK  7 active torsions:
REMARK  status: ('A' for Active; 'I' for Inactive)
REMARK    1  A    between atoms: N_3  and  C_8 
REMARK       I    between atoms: N_3  and  C_19 
REMARK    2  A    between atoms: N_4  and  C_20 
REMARK    3  A    between atoms: N_5  and  C_21 
REMARK       I    between atoms: N_6  and  C_14 
REMARK    4  A    between atoms: N_6  and  C_28 
REMARK    5  A    between atoms: C_8  and  C_14 
REMARK    6  A    between atoms: C_19  and  C_22 
REMARK    7  A    between atoms: C_20  and  C_23 
ROOT
HETATM    1  N   UNL     1       2.549  -4.589  -0.408  1.00  0.00    -0.196 NA
HETATM    2  C   UNL     1       4.360  -3.209   0.892  1.00  0.00     0.247 C 
HETATM    3  C   UNL     1       3.349  -3.977   0.167  1.00  0.00     0.078 C 
ENDROOT
BRANCH   2   4
HETATM    4  N   UNL     1       4.095  -1.792   0.800  1.00  0.00    -0.347 N 
HETATM    5  C   UNL     1       4.600  -0.991  -0.209  1.00  0.00     0.246 C 
HETATM    6  O   UNL     1       5.319  -1.363  -1.133  1.00  0.00    -0.271 OA
HETATM    7  H   UNL     1       3.459  -1.397   1.487  1.00  0.00     0.163 HD
BRANCH   5   8
HETATM    8  C   UNL     1       4.149   0.439  -0.081  1.00  0.00     0.114 C 
HETATM    9  C   UNL     1       4.614   1.033   1.255  1.00  0.00     0.041 C 
HETATM   10  C   UNL     1       6.114   1.327   1.279  1.00  0.00     0.003 C 
HETATM   11  C   UNL     1       6.537   2.192   0.098  1.00  0.00     0.000 C 
HETATM   12  C   UNL     1       6.125   1.567  -1.230  1.00  0.00     0.003 C 
HETATM   13  C   UNL     1       4.626   1.273  -1.277  1.00  0.00     0.041 C 
BRANCH   8  14
HETATM   14  N   UNL     1       2.708   0.311  -0.104  1.00  0.00    -0.339 N 
HETATM   15  C   UNL     1       1.863   1.405  -0.011  1.00  0.00     0.252 C 
HETATM   16  O   UNL     1       2.233   2.571   0.099  1.00  0.00    -0.268 OA
HETATM   17  H   UNL     1       2.313  -0.624  -0.130  1.00  0.00     0.164 HD
BRANCH  15  18
HETATM   18  C   UNL     1       0.409   1.103  -0.023  1.00  0.00     0.032 A 
HETATM   19  C   UNL     1      -0.489   1.969   0.603  1.00  0.00     0.019 A 
HETATM   20  C   UNL     1      -1.854   1.685   0.592  1.00  0.00     0.030 A 
HETATM   21  C   UNL     1      -2.323   0.536  -0.046  1.00  0.00     0.030 A 
HETATM   22  C   UNL     1      -1.426  -0.329  -0.672  1.00  0.00     0.030 A 
HETATM   23  C   UNL     1      -0.060  -0.045  -0.660  1.00  0.00     0.019 A 
BRANCH  21  24
HETATM   24  N   UNL     1      -3.693   0.253  -0.059  1.00  0.00    -0.378 N 
HETATM   25  C   UNL     1      -4.142  -1.007   0.547  1.00  0.00     0.153 C 
HETATM   26  C   UNL     1      -5.518  -1.402   0.006  1.00  0.00     0.292 C 
HETATM   27  N   UNL     1      -6.484  -0.309   0.173  1.00  0.00     0.091 N 
HETATM   28  C   UNL     1      -6.023   0.880  -0.554  1.00  0.00     0.292 C 
HETATM   29  C   UNL     1      -4.663   1.351  -0.032  1.00  0.00     0.153 C 
BRANCH  27  30
HETATM   30  C   UNL     1      -7.807  -0.717  -0.297  1.00  0.00     0.272 C 
BRANCH  30  31
HETATM   31  C   UNL     1      -8.890   0.128   0.369  1.00  0.00     0.026 C 
HETATM   32  C   UNL     1     -10.279  -0.292  -0.087  1.00  0.00     0.007 C 
ENDBRANCH  30  31
ENDBRANCH  27  30
ENDBRANCH  21  24
ENDBRANCH  15  18
ENDBRANCH   8  14
ENDBRANCH   5   8
ENDBRANCH   2   4
TORSDOF 7
