REMARK  4 active torsions:
REMARK  status: ('A' for Active; 'I' for Inactive)
REMARK    1  A    between atoms: O_1  and  C_6 
REMARK    2  A    between atoms: O_2  and  C_7 
REMARK    3  A    between atoms: C_5  and  C_6 
REMARK    4  A    between atoms: C_5  and  C_7 
ROOT
HETATM    1  C   UNL     1       0.005   0.815  -0.006  1.00  0.00     0.219 C 
ENDROOT
BRANCH   1   2
HETATM    2  C   UNL     1       1.270   0.004  -0.007  1.00  0.00     0.149 C 
HETATM    3  O   UNL     1       1.314  -1.218   0.002  1.00  0.00    -0.650 OA
BRANCH   2   4
HETATM    4  O   UNL     1       2.367   0.801   0.007  1.00  0.00    -0.776 OA
HETATM    5  H   UNL     1       3.198   0.280   0.018  1.00  0.00     0.167 HD
ENDBRANCH   2   4
ENDBRANCH   1   2
BRANCH   1   6
HETATM    6  C   UNL     1      -1.266   0.007  -0.004  1.00  0.00     0.149 C 
HETATM    7  O   UNL     1      -1.326  -1.214   0.002  1.00  0.00    -0.650 OA
BRANCH   6   8
HETATM    8  O   UNL     1      -2.365   0.805   0.006  1.00  0.00    -0.776 OA
HETATM    9  H   UNL     1      -3.195   0.284   0.014  1.00  0.00     0.167 HD
ENDBRANCH   6   8
ENDBRANCH   1   6
TORSDOF 4
