REMARK  13 active torsions:
REMARK  status: ('A' for Active; 'I' for Inactive)
REMARK    1  A    between atoms: O_3  and  C_20 
REMARK    2  A    between atoms: O_4  and  C_23 
REMARK    3  A    between atoms: O_4  and  C_24 
REMARK    4  A    between atoms: O_5  and  C_32 
REMARK    5  A    between atoms: N_7  and  C_10 
REMARK    6  A    between atoms: N_7  and  C_17 
REMARK    7  A    between atoms: C_8  and  C_9 
REMARK    8  A    between atoms: C_9  and  C_10 
REMARK    9  A    between atoms: C_17  and  C_20 
REMARK   10  A    between atoms: C_20  and  C_23 
REMARK   11  A    between atoms: C_26  and  C_28 
REMARK   12  A    between atoms: C_28  and  C_31 
REMARK   13  A    between atoms: C_31  and  C_32 
ROOT
HETATM    1  C   UNL     1       4.184  -0.876   0.489  1.00  0.00     0.170 C 
ENDROOT
BRANCH   1   2
HETATM    2  O   UNL     1       5.389  -0.458  -0.158  1.00  0.00    -0.392 OA
HETATM    3  H   UNL     1       5.882   0.096   0.472  1.00  0.00     0.210 HD
ENDBRANCH   1   2
BRANCH   1   4
HETATM    4  C   UNL     1       3.422  -1.796  -0.468  1.00  0.00     0.304 C 
BRANCH   4   5
HETATM    5  N   UNL     1       2.159  -2.242   0.093  1.00  0.00     0.095 N 
HETATM    6  H   UNL     1       2.331  -2.737   0.968  1.00  0.00     0.317 HD
BRANCH   5   7
HETATM    7  C   UNL     1       1.460  -3.125  -0.850  1.00  0.00     0.151 C 
HETATM    8  C   UNL     1       1.205  -2.346  -2.151  1.00  0.00     0.048 C 
HETATM    9  C   UNL     1       2.367  -4.326  -1.150  1.00  0.00     0.048 C 
BRANCH   7  10
HETATM   10  C   UNL     1       0.103  -3.562  -0.258  1.00  0.00     0.046 C 
BRANCH  10  11
HETATM   11  C   UNL     1      -0.849  -2.427   0.085  1.00  0.00    -0.004 C 
HETATM   12  C   UNL     1      -0.286  -1.487   1.172  1.00  0.00     0.044 C 
HETATM   13  C   UNL     1      -1.545  -0.973   1.797  1.00  0.00    -0.051 A 
HETATM   14  C   UNL     1      -2.634  -1.790   1.478  1.00  0.00    -0.051 A 
HETATM   15  C   UNL     1      -1.695   0.125   2.629  1.00  0.00     0.007 A 
HETATM   16  C   UNL     1      -2.211  -2.932   0.608  1.00  0.00     0.044 C 
HETATM   17  C   UNL     1      -3.896  -1.528   1.984  1.00  0.00     0.007 A 
HETATM   18  C   UNL     1      -4.059  -0.417   2.813  1.00  0.00     0.001 A 
HETATM   19  C   UNL     1      -2.966   0.404   3.134  1.00  0.00     0.001 A 
ENDBRANCH  10  11
ENDBRANCH   7  10
ENDBRANCH   5   7
ENDBRANCH   4   5
ENDBRANCH   1   4
BRANCH   1  20
HETATM   20  C   UNL     1       3.392   0.365   0.894  1.00  0.00     0.209 C 
BRANCH  20  21
HETATM   21  O   UNL     1       3.110   1.131  -0.273  1.00  0.00    -0.345 OA
BRANCH  21  22
HETATM   22  C   UNL     1       1.949   1.858  -0.266  1.00  0.00     0.111 A 
HETATM   23  C   UNL     1       0.977   1.610  -1.229  1.00  0.00     0.047 A 
HETATM   24  C   UNL     1      -0.205   2.350  -1.224  1.00  0.00    -0.052 A 
HETATM   25  C   UNL     1      -0.409   3.332  -0.254  1.00  0.00     0.052 A 
HETATM   26  C   UNL     1       0.570   3.575   0.709  1.00  0.00     0.158 A 
HETATM   27  F   UNL     1       0.375   4.518   1.640  1.00  0.00    -0.203 F 
HETATM   28  C   UNL     1       1.753   2.836   0.703  1.00  0.00     0.188 A 
HETATM   29  F   UNL     1       2.689   3.073   1.632  1.00  0.00    -0.200 F 
BRANCH  24  30
HETATM   30  C   UNL     1      -1.253   2.089  -2.252  1.00  0.00     0.049 C 
BRANCH  30  31
HETATM   31  C   UNL     1      -2.277   1.027  -1.835  1.00  0.00     0.114 C 
BRANCH  31  32
HETATM   32  C   UNL     1      -3.294   0.775  -2.922  1.00  0.00     0.139 C 
HETATM   33  O   UNL     1      -3.287   1.344  -4.006  1.00  0.00    -0.650 OA
BRANCH  32  34
HETATM   34  O   UNL     1      -4.237  -0.130  -2.563  1.00  0.00    -0.776 OA
HETATM   35  H   UNL     1      -4.897  -0.274  -3.275  1.00  0.00     0.167 HD
ENDBRANCH  32  34
ENDBRANCH  31  32
ENDBRANCH  30  31
ENDBRANCH  24  30
ENDBRANCH  21  22
ENDBRANCH  20  21
ENDBRANCH   1  20
TORSDOF 13
