REMARK  9 active torsions:
REMARK  status: ('A' for Active; 'I' for Inactive)
REMARK    1  A    between atoms: P_1  and  O_4 
REMARK    2  A    between atoms: P_1  and  O_5 
REMARK    3  A    between atoms: P_1  and  C_12 
REMARK    4  A    between atoms: P_2  and  O_6 
REMARK    5  A    between atoms: P_2  and  O_7 
REMARK    6  A    between atoms: P_2  and  C_12 
REMARK    7  A    between atoms: O_3  and  C_12 
REMARK    8  A    between atoms: C_12  and  C_13 
REMARK    9  A    between atoms: C_13  and  C_14 
ROOT
HETATM    1  C   UNL     1      -1.476   0.157   0.038  1.00  0.00     0.257 C 
ENDROOT
BRANCH   1   2
HETATM    2  P   UNL     1      -2.912   1.240  -0.396  1.00  0.00     0.284 P 
HETATM    3  O   UNL     1      -3.610   0.840  -1.661  1.00  0.00    -0.651 OA
BRANCH   2   4
HETATM    4  O   UNL     1      -2.296   2.735  -0.389  1.00  0.00    -0.327 OA
HETATM    5  H   UNL     1      -2.874   3.487  -0.636  1.00  0.00     0.220 HD
ENDBRANCH   2   4
BRANCH   2   6
HETATM    6  O   UNL     1      -3.831   1.214   0.934  1.00  0.00    -0.327 OA
HETATM    7  H   UNL     1      -4.689   1.691   0.927  1.00  0.00     0.220 HD
ENDBRANCH   2   6
ENDBRANCH   1   2
BRANCH   1   8
HETATM    8  P   UNL     1      -1.776  -1.549   0.624  1.00  0.00     0.284 P 
HETATM    9  O   UNL     1      -0.574  -2.279   1.145  1.00  0.00    -0.651 OA
BRANCH   8  10
HETATM   10  O   UNL     1      -2.970  -1.372   1.699  1.00  0.00    -0.327 OA
HETATM   11  H   UNL     1      -3.296  -2.162   2.180  1.00  0.00     0.220 HD
ENDBRANCH   8  10
BRANCH   8  12
HETATM   12  O   UNL     1      -2.519  -2.242  -0.633  1.00  0.00    -0.327 OA
HETATM   13  H   UNL     1      -2.764  -3.190  -0.576  1.00  0.00     0.220 HD
ENDBRANCH   8  12
ENDBRANCH   1   8
BRANCH   1  14
HETATM   14  O   UNL     1      -0.929   0.808   1.184  1.00  0.00    -0.368 OA
HETATM   15  H   UNL     1      -1.603   0.778   1.884  1.00  0.00     0.212 HD
ENDBRANCH   1  14
BRANCH   1  16
HETATM   16  C   UNL     1      -0.458   0.238  -1.125  1.00  0.00     0.122 C 
BRANCH  16  17
HETATM   17  C   UNL     1       0.880  -0.407  -0.857  1.00  0.00     0.039 A 
HETATM   18  N   UNL     1       1.919   0.267  -0.315  1.00  0.00    -0.309 N 
HETATM   19  C   UNL     1       2.959  -0.654  -0.228  1.00  0.00     0.133 A 
HETATM   20  C   UNL     1       2.027   1.592   0.098  1.00  0.00     0.099 A 
HETATM   21  N   UNL     1       2.592  -1.833  -0.687  1.00  0.00    -0.241 NA
HETATM   22  C   UNL     1       4.192  -0.190   0.319  1.00  0.00     0.051 A 
HETATM   23  C   UNL     1       1.288  -1.677  -1.081  1.00  0.00     0.144 A 
HETATM   24  C   UNL     1       4.303   1.091   0.721  1.00  0.00     0.005 A 
HETATM   25  C   UNL     1       3.191   2.022   0.612  1.00  0.00     0.018 A 
ENDBRANCH  16  17
ENDBRANCH   1  16
TORSDOF 9
