REMARK  2 active torsions:
REMARK  status: ('A' for Active; 'I' for Inactive)
REMARK    1  A    between atoms: O_1  and  C_7 
REMARK    2  A    between atoms: C_3  and  C_14 
ROOT
HETATM    1  O   UNL     1      -6.175  -0.124   0.920  1.00  0.00    -0.293 OA
HETATM    2  C   UNL     1       2.190  -0.357  -0.274  1.00  0.00     0.006 C 
HETATM    3  C   UNL     1       1.371   0.919   0.025  1.00  0.00     0.002 C 
HETATM    4  C   UNL     1      -0.056   0.852  -0.526  1.00  0.00    -0.005 C 
HETATM    5  C   UNL     1      -0.792  -0.360   0.117  1.00  0.00    -0.002 C 
HETATM    6  C   UNL     1       3.582   0.062   0.289  1.00  0.00     0.128 C 
HETATM    7  C   UNL     1       1.487  -1.545   0.407  1.00  0.00     0.014 C 
HETATM    8  C   UNL     1       2.285   2.048  -0.446  1.00  0.00     0.010 C 
HETATM    9  C   UNL     1       0.017  -1.674  -0.033  1.00  0.00     0.006 C 
HETATM   10  C   UNL     1      -2.246  -0.490  -0.433  1.00  0.00     0.019 C 
HETATM   11  C   UNL     1       3.715   1.536  -0.174  1.00  0.00     0.052 C 
HETATM   12  C   UNL     1      -0.838   2.142  -0.247  1.00  0.00     0.010 C 
HETATM   13  C   UNL     1      -2.247   2.055  -0.823  1.00  0.00     0.035 C 
HETATM   14  C   UNL     1      -2.990   0.835  -0.337  1.00  0.00    -0.072 C 
HETATM   15  C   UNL     1      -2.998  -1.623   0.295  1.00  0.00     0.017 C 
HETATM   16  C   UNL     1       3.675  -0.009   1.761  1.00  0.00    -0.078 C 
HETATM   17  C   UNL     1      -4.495  -1.589   0.040  1.00  0.00     0.084 C 
HETATM   18  C   UNL     1      -4.251   0.955   0.107  1.00  0.00     0.053 C 
HETATM   19  C   UNL     1      -5.056  -0.246   0.429  1.00  0.00     0.149 C 
HETATM   20  C   UNL     1       3.751  -0.068   2.958  1.00  0.00     0.015 C 
ENDROOT
BRANCH   6  21
HETATM   21  O   UNL     1       4.643  -0.705  -0.262  1.00  0.00    -0.377 OA
HETATM   22  H   UNL     1       4.641  -1.580   0.164  1.00  0.00     0.211 HD
ENDBRANCH   6  21
BRANCH   2  23
HETATM   23  C   UNL     1       2.322  -0.672  -1.794  1.00  0.00     0.009 C 
HETATM   24  C   UNL     1       3.103  -1.942  -1.999  1.00  0.00     0.006 C 
ENDBRANCH   2  23
TORSDOF 2
