REMARK  7 active torsions:
REMARK  status: ('A' for Active; 'I' for Inactive)
REMARK    1  A    between atoms: O_1  and  C_6 
REMARK    2  A    between atoms: O_2  and  C_7 
REMARK    3  A    between atoms: O_3  and  C_8 
REMARK    4  A    between atoms: O_4  and  C_9 
REMARK    5  A    between atoms: C_6  and  C_7 
REMARK    6  A    between atoms: C_6  and  C_8 
REMARK    7  A    between atoms: C_7  and  C_9 
ROOT
HETATM    1  C   UNL     1       0.586   0.386  -0.821  1.00  0.00     0.246 C 
ENDROOT
BRANCH   1   2
HETATM    2  O   UNL     1       0.738   1.797  -0.686  1.00  0.00    -0.382 OA
HETATM    3  H   UNL     1       1.655   2.016  -0.923  1.00  0.00     0.210 HD
ENDBRANCH   1   2
BRANCH   1   4
HETATM    4  C   UNL     1      -0.903   0.060  -0.643  1.00  0.00     0.180 C 
BRANCH   4   5
HETATM    5  O   UNL     1      -1.127  -1.340  -0.802  1.00  0.00    -0.390 OA
HETATM    6  H   UNL     1      -0.774  -1.596  -1.671  1.00  0.00     0.210 HD
ENDBRANCH   4   5
BRANCH   4   7
HETATM    7  C   UNL     1      -1.495   0.482   0.698  1.00  0.00     0.199 C 
BRANCH   7   8
HETATM    8  O   UNL     1      -2.859   0.110   0.798  1.00  0.00    -0.398 OA
HETATM    9  H   UNL     1      -3.335   0.543   0.070  1.00  0.00     0.209 HD
ENDBRANCH   7   8
ENDBRANCH   4   7
ENDBRANCH   1   4
BRANCH   1  10
HETATM   10  C   UNL     1       1.473  -0.253   0.231  1.00  0.00     0.172 C 
HETATM   11  O   UNL     1       2.112   0.365   1.072  1.00  0.00    -0.648 OA
BRANCH  10  12
HETATM   12  O   UNL     1       1.475  -1.608   0.152  1.00  0.00    -0.774 OA
HETATM   13  H   UNL     1       2.045  -2.013   0.840  1.00  0.00     0.167 HD
ENDBRANCH  10  12
ENDBRANCH   1  10
TORSDOF 7
