REMARK  9 active torsions:
REMARK  status: ('A' for Active; 'I' for Inactive)
REMARK    1  A    between atoms: O_1  and  C_13 
REMARK    2  A    between atoms: O_1  and  C_24 
REMARK    3  A    between atoms: O_2  and  C_27 
REMARK    4  A    between atoms: O_3  and  C_35 
REMARK    5  A    between atoms: N_4  and  C_12 
REMARK    6  A    between atoms: N_5  and  C_18 
REMARK    7  A    between atoms: C_12  and  C_13 
REMARK    8  A    between atoms: C_14  and  C_20 
REMARK    9  A    between atoms: C_18  and  C_19 
ROOT
HETATM    1  N   UNL     1       3.193   0.011   0.652  1.00  0.00    -0.341 N 
HETATM    2  C   UNL     1       3.262  -1.024  -0.227  1.00  0.00     0.052 A 
HETATM    3  C   UNL     1       4.033   1.028   0.292  1.00  0.00     0.046 A 
HETATM    4  C   UNL     1       4.176  -0.678  -1.196  1.00  0.00    -0.022 A 
HETATM    5  C   UNL     1       4.672   0.618  -0.881  1.00  0.00     0.002 A 
HETATM    6  C   UNL     1       4.283   2.265   0.895  1.00  0.00     0.033 A 
HETATM    7  C   UNL     1       5.606   1.485  -1.483  1.00  0.00     0.051 A 
HETATM    8  C   UNL     1       4.575  -1.500  -2.359  1.00  0.00     0.051 C 
HETATM    9  C   UNL     1       5.865   2.726  -0.890  1.00  0.00     0.066 A 
HETATM   10  C   UNL     1       5.213   3.108   0.280  1.00  0.00     0.039 A 
ENDROOT
BRANCH   1  11
HETATM   11  C   UNL     1       2.332   0.043   1.839  1.00  0.00     0.168 C 
BRANCH  11  12
HETATM   12  C   UNL     1       0.993   0.626   1.539  1.00  0.00    -0.040 A 
HETATM   13  C   UNL     1       0.893   1.791   0.777  1.00  0.00     0.011 A 
HETATM   14  C   UNL     1      -0.359   2.336   0.498  1.00  0.00     0.037 A 
HETATM   15  C   UNL     1      -1.505   1.714   0.981  1.00  0.00     0.068 A 
HETATM   16  C   UNL     1      -1.414   0.553   1.740  1.00  0.00     0.037 A 
HETATM   17  C   UNL     1      -0.161   0.007   2.020  1.00  0.00     0.011 A 
BRANCH  15  18
HETATM   18  O   UNL     1      -2.735   2.250   0.704  1.00  0.00    -0.349 OA
BRANCH  18  19
HETATM   19  C   UNL     1      -3.824   1.341   0.612  1.00  0.00     0.206 C 
BRANCH  19  20
HETATM   20  C   UNL     1      -4.856   1.911  -0.348  1.00  0.00     0.299 C 
BRANCH  20  21
HETATM   21  N   UNL     1      -5.992   0.998  -0.488  1.00  0.00     0.090 N 
HETATM   22  C   UNL     1      -6.654   0.823   0.809  1.00  0.00     0.272 C 
HETATM   23  C   UNL     1      -8.014   0.119   0.814  1.00  0.00     0.030 C 
HETATM   24  C   UNL     1      -8.131  -1.050  -0.159  1.00  0.00     0.002 C 
HETATM   25  C   UNL     1      -8.520  -0.591  -1.562  1.00  0.00     0.002 C 
HETATM   26  C   UNL     1      -7.450   0.203  -2.307  1.00  0.00     0.030 C 
HETATM   27  C   UNL     1      -6.885   1.420  -1.569  1.00  0.00     0.272 C 
ENDBRANCH  20  21
ENDBRANCH  19  20
ENDBRANCH  18  19
ENDBRANCH  15  18
ENDBRANCH  11  12
ENDBRANCH   1  11
BRANCH   2  28
HETATM   28  C   UNL     1       2.482  -2.235  -0.094  1.00  0.00    -0.009 A 
HETATM   29  C   UNL     1       2.992  -3.313   0.625  1.00  0.00     0.016 A 
HETATM   30  C   UNL     1       2.240  -4.480   0.752  1.00  0.00     0.037 A 
HETATM   31  C   UNL     1       0.980  -4.566   0.160  1.00  0.00     0.065 A 
HETATM   32  C   UNL     1       0.472  -3.485  -0.559  1.00  0.00     0.037 A 
HETATM   33  C   UNL     1       1.224  -2.317  -0.687  1.00  0.00     0.016 A 
BRANCH  31  34
HETATM   34  O   UNL     1       0.246  -5.706   0.285  1.00  0.00    -0.361 OA
HETATM   35  H   UNL     1       0.749  -6.349   0.813  1.00  0.00     0.217 HD
ENDBRANCH  31  34
ENDBRANCH   2  28
BRANCH   9  36
HETATM   36  O   UNL     1       6.769   3.569  -1.466  1.00  0.00    -0.361 OA
HETATM   37  H   UNL     1       6.829   4.379  -0.932  1.00  0.00     0.217 HD
ENDBRANCH   9  36
TORSDOF 9
