REMARK  5 active torsions:
REMARK  status: ('A' for Active; 'I' for Inactive)
REMARK    1  A    between atoms: O_7  and  C_15 
REMARK    2  A    between atoms: N_9  and  C_16 
REMARK    3  A    between atoms: C_11  and  C_15 
REMARK    4  A    between atoms: C_15  and  C_18 
REMARK    5  A    between atoms: C_24  and  C_27 
ROOT
HETATM    1  O   UNL     1      -5.498   2.543   0.040  1.00  0.00    -0.268 OA
HETATM    2  N   UNL     1      -3.235   2.408  -0.346  1.00  0.00    -0.323 N 
HETATM    3  C   UNL     1       0.297   0.173  -0.545  1.00  0.00     0.032 A 
HETATM    4  C   UNL     1      -0.902  -0.457  -0.200  1.00  0.00     0.044 A 
HETATM    5  C   UNL     1       0.319   1.538  -0.821  1.00  0.00     0.031 A 
HETATM    6  C   UNL     1      -2.099   0.270  -0.127  1.00  0.00     0.008 A 
HETATM    7  C   UNL     1      -2.058   1.644  -0.409  1.00  0.00     0.046 A 
HETATM    8  C   UNL     1      -0.859   2.277  -0.754  1.00  0.00     0.033 A 
HETATM    9  C   UNL     1      -3.396  -0.343   0.232  1.00  0.00     0.065 A 
HETATM   10  C   UNL     1      -4.497   0.425   0.280  1.00  0.00     0.091 A 
HETATM   11  C   UNL     1      -4.464   1.881  -0.016  1.00  0.00     0.246 A 
HETATM   12  H   UNL     1      -3.173   3.400  -0.555  1.00  0.00     0.169 HD
ENDROOT
BRANCH   3  13
HETATM   13  N   UNL     1       1.469  -0.564  -0.612  1.00  0.00    -0.369 N 
HETATM   14  C   UNL     1       2.821   0.024  -0.665  1.00  0.00     0.122 C 
HETATM   15  C   UNL     1       3.736  -1.153  -1.049  1.00  0.00     0.030 C 
HETATM   16  C   UNL     1       2.803  -2.120  -1.757  1.00  0.00     0.027 C 
HETATM   17  C   UNL     1       1.492  -1.989  -0.972  1.00  0.00     0.081 C 
HETATM   18  C   UNL     1       1.484  -2.866   0.279  1.00  0.00     0.032 C 
BRANCH  14  19
HETATM   19  C   UNL     1       3.251   0.606   0.679  1.00  0.00     0.248 C 
BRANCH  19  20
HETATM   20  O   UNL     1       3.123  -0.393   1.687  1.00  0.00    -0.384 OA
HETATM   21  H   UNL     1       3.951  -0.898   1.739  1.00  0.00     0.210 HD
ENDBRANCH  19  20
BRANCH  19  22
HETATM   22  C   UNL     1       4.690   1.077   0.658  1.00  0.00     0.414 C 
HETATM   23  F   UNL     1       5.064   1.544   1.870  1.00  0.00    -0.168 F 
HETATM   24  F   UNL     1       5.525   0.063   0.341  1.00  0.00    -0.168 F 
HETATM   25  F   UNL     1       4.878   2.065  -0.242  1.00  0.00    -0.168 F 
ENDBRANCH  19  22
ENDBRANCH  14  19
ENDBRANCH   3  13
BRANCH   9  26
HETATM   26  C   UNL     1      -3.469  -1.811   0.538  1.00  0.00     0.418 C 
HETATM   27  F   UNL     1      -2.254  -2.383   0.430  1.00  0.00    -0.166 F 
HETATM   28  F   UNL     1      -3.918  -2.018   1.792  1.00  0.00    -0.166 F 
HETATM   29  F   UNL     1      -4.303  -2.441  -0.312  1.00  0.00    -0.166 F 
ENDBRANCH   9  26
TORSDOF 5
