16750192
  -OEChem-05062210143D

 43 45  0     1  0  0  0  0  0999 V2000
    5.0636    1.5444    1.8699 F   0  0  0  0  0  0  0  0  0  0  0  0
    5.5254    0.0630    0.3406 F   0  0  0  0  0  0  0  0  0  0  0  0
    4.8781    2.0648   -0.2417 F   0  0  0  0  0  0  0  0  0  0  0  0
   -2.2541   -2.3832    0.4304 F   0  0  0  0  0  0  0  0  0  0  0  0
   -3.9175   -2.0184    1.7916 F   0  0  0  0  0  0  0  0  0  0  0  0
   -4.3032   -2.4405   -0.3119 F   0  0  0  0  0  0  0  0  0  0  0  0
    3.1230   -0.3926    1.6868 O   0  0  0  0  0  0  0  0  0  0  0  0
   -5.4982    2.5427    0.0396 O   0  0  0  0  0  0  0  0  0  0  0  0
    1.4692   -0.5635   -0.6116 N   0  0  3  0  0  0  0  0  0  0  0  0
   -3.2353    2.4079   -0.3457 N   0  0  0  0  0  0  0  0  0  0  0  0
    2.8214    0.0240   -0.6647 C   0  0  2  0  0  0  0  0  0  0  0  0
    1.4923   -1.9893   -0.9723 C   0  0  1  0  0  0  0  0  0  0  0  0
    3.7357   -1.1527   -1.0494 C   0  0  0  0  0  0  0  0  0  0  0  0
    2.8029   -2.1205   -1.7566 C   0  0  0  0  0  0  0  0  0  0  0  0
    3.2508    0.6057    0.6786 C   0  0  2  0  0  0  0  0  0  0  0  0
    0.2971    0.1732   -0.5449 C   0  0  0  0  0  0  0  0  0  0  0  0
    1.4837   -2.8656    0.2791 C   0  0  0  0  0  0  0  0  0  0  0  0
    4.6900    1.0767    0.6585 C   0  0  0  0  0  0  0  0  0  0  0  0
   -0.9023   -0.4573   -0.2004 C   0  0  0  0  0  0  0  0  0  0  0  0
    0.3187    1.5378   -0.8210 C   0  0  0  0  0  0  0  0  0  0  0  0
   -2.0994    0.2696   -0.1270 C   0  0  0  0  0  0  0  0  0  0  0  0
   -2.0576    1.6440   -0.4088 C   0  0  0  0  0  0  0  0  0  0  0  0
   -0.8590    2.2771   -0.7538 C   0  0  0  0  0  0  0  0  0  0  0  0
   -3.3960   -0.3428    0.2321 C   0  0  0  0  0  0  0  0  0  0  0  0
   -4.4968    0.4252    0.2802 C   0  0  0  0  0  0  0  0  0  0  0  0
   -4.4639    1.8809   -0.0159 C   0  0  0  0  0  0  0  0  0  0  0  0
   -3.4689   -1.8107    0.5383 C   0  0  0  0  0  0  0  0  0  0  0  0
    2.8891    0.7707   -1.4650 H   0  0  0  0  0  0  0  0  0  0  0  0
    0.6599   -2.2650   -1.6313 H   0  0  0  0  0  0  0  0  0  0  0  0
    4.5540   -0.8382   -1.7058 H   0  0  0  0  0  0  0  0  0  0  0  0
    4.1768   -1.6746   -0.1949 H   0  0  0  0  0  0  0  0  0  0  0  0
    2.6506   -1.7893   -2.7916 H   0  0  0  0  0  0  0  0  0  0  0  0
    3.1921   -3.1427   -1.7822 H   0  0  0  0  0  0  0  0  0  0  0  0
    2.6003    1.4369    0.9669 H   0  0  0  0  0  0  0  0  0  0  0  0
    1.4372   -3.9218   -0.0088 H   0  0  0  0  0  0  0  0  0  0  0  0
    0.6365   -2.6660    0.9392 H   0  0  0  0  0  0  0  0  0  0  0  0
    2.3881   -2.7401    0.8814 H   0  0  0  0  0  0  0  0  0  0  0  0
   -0.7956   -1.5017   -0.0201 H   0  0  0  0  0  0  0  0  0  0  0  0
    1.2245    2.0668   -1.0979 H   0  0  0  0  0  0  0  0  0  0  0  0
    3.9512   -0.8982    1.7388 H   0  0  0  0  0  0  0  0  0  0  0  0
   -0.8345    3.3416   -0.9719 H   0  0  0  0  0  0  0  0  0  0  0  0
   -3.1728    3.4002   -0.5551 H   0  0  0  0  0  0  0  0  0  0  0  0
   -5.4630    0.0044    0.5407 H   0  0  0  0  0  0  0  0  0  0  0  0
  1 18  1  0  0  0  0
  2 18  1  0  0  0  0
  3 18  1  0  0  0  0
  4 27  1  0  0  0  0
  5 27  1  0  0  0  0
  6 27  1  0  0  0  0
  7 15  1  0  0  0  0
  7 40  1  0  0  0  0
  8 26  2  0  0  0  0
  9 11  1  0  0  0  0
  9 12  1  0  0  0  0
  9 16  1  0  0  0  0
 10 22  1  0  0  0  0
 10 26  1  0  0  0  0
 10 42  1  0  0  0  0
 11 13  1  0  0  0  0
 11 15  1  0  0  0  0
 11 28  1  0  0  0  0
 12 14  1  0  0  0  0
 12 17  1  0  0  0  0
 12 29  1  0  0  0  0
 13 14  1  0  0  0  0
 13 30  1  0  0  0  0
 13 31  1  0  0  0  0
 14 32  1  0  0  0  0
 14 33  1  0  0  0  0
 15 18  1  0  0  0  0
 15 34  1  0  0  0  0
 16 19  2  0  0  0  0
 16 20  1  0  0  0  0
 17 35  1  0  0  0  0
 17 36  1  0  0  0  0
 17 37  1  0  0  0  0
 19 21  1  0  0  0  0
 19 38  1  0  0  0  0
 20 23  2  0  0  0  0
 20 39  1  0  0  0  0
 21 22  2  0  0  0  0
 21 24  1  0  0  0  0
 22 23  1  0  0  0  0
 23 41  1  0  0  0  0
 24 25  2  0  0  0  0
 24 27  1  0  0  0  0
 25 26  1  0  0  0  0
 25 43  1  0  0  0  0
M  END
> <PUBCHEM_COMPOUND_CID>
16750192

> <PUBCHEM_CONFORMER_RMSD>
0.8

> <PUBCHEM_CONFORMER_DIVERSEORDER>
2
16
13
12
7
9
10
15
1
14
5
4
11
8
6
3
18
17

> <PUBCHEM_MMFF94_PARTIAL_CHARGES>
30
1 -0.34
10 -0.55
11 0.37
12 0.37
15 0.28
16 0.1
18 1.02
19 -0.15
2 -0.34
20 -0.15
21 0.03
22 0.12
23 -0.15
24 -0.17
25 -0.14
26 0.62
27 1.16
3 -0.34
38 0.15
39 0.15
4 -0.34
40 0.4
41 0.15
42 0.37
43 0.15
5 -0.34
6 -0.34
7 -0.68
8 -0.57
9 -0.84

> <PUBCHEM_EFFECTIVE_ROTOR_COUNT>
5

> <PUBCHEM_PHARMACOPHORE_FEATURES>
8
1 10 donor
1 7 acceptor
1 7 donor
1 8 acceptor
1 9 cation
5 9 11 12 13 14 rings
6 10 21 22 24 25 26 rings
6 16 19 20 21 22 23 rings

> <PUBCHEM_HEAVY_ATOM_COUNT>
27

> <PUBCHEM_ATOM_DEF_STEREO_COUNT>
3

> <PUBCHEM_ATOM_UDEF_STEREO_COUNT>
0

> <PUBCHEM_BOND_DEF_STEREO_COUNT>
0

> <PUBCHEM_BOND_UDEF_STEREO_COUNT>
0

> <PUBCHEM_ISOTOPIC_ATOM_COUNT>
0

> <PUBCHEM_COMPONENT_COUNT>
1

> <PUBCHEM_CACTVS_TAUTO_COUNT>
2

> <PUBCHEM_CONFORMER_ID>
00FF967000000002

> <PUBCHEM_MMFF94_ENERGY>
89.6062

> <PUBCHEM_FEATURE_SELFOVERLAP>
40.621

> <PUBCHEM_SHAPE_FINGERPRINT>
10074138 170 17837181025747889098
10319926 262 18337096892391992194
10366900 7 18130774668847286209
11045977 3 18342739585511960596
11112241 14 17631997750019568217
11370993 144 17916601829643389963
11405975 8 18269277871985818178
11552529 35 17704071832827257223
11578080 2 18131915953463769801
11595378 159 17241046487890590684
12236239 1 16805613538035390132
12403259 118 18337662126925538808
12403259 415 18202566220195249336
12553582 1 18191607430466341311
12633257 1 18191009132715328762
13034934 17 18272364321484030170
13140716 1 18335422417244500693
13224815 77 18411979148248393934
13544592 145 18196944262027489991
13583140 156 17632291311318877885
14081887 123 18410290276986977465
14178342 30 18187649080772884991
14223421 5 18341335496088517302
14341114 328 17967528000102325472
14787075 74 18057884838848355282
14790565 3 18121508109587428428
15099037 37 18334855051837248061
15375358 24 18411419484166298695
15788980 27 15213014955631470357
15880784 105 17489866016769601527
17349148 13 15719392828417415936
17913733 40 17704348888440810842
17980427 23 17822296828871891044
1813 80 17095533880823447749
19784866 170 18411138034790729580
20642791 13 18410572920769974607
20645477 70 17560519482671325790
21033648 29 17989196066649055584
21421861 104 17750791035020531394
21452121 103 18271240530817729342
21756936 100 18198329840669492348
21859007 373 17026828538856779413
22182313 1 18341060652509747887
23557571 272 18409454690920140560
23559900 14 18337963264088126462
34934 24 18408882902430452399
49207404 50 18343299271506326356
495365 180 17773583936675966455
5104073 3 18411423869053868123
59755656 215 18270404880679778870
6442390 28 18342737459920010518
6823239 73 18339935818303056924
9709674 26 18340773641557439503

> <PUBCHEM_SHAPE_MULTIPOLES>
490.3
11.33
3.12
1.23
0.72
0.83
-0.25
-3.87
-2.82
-1.55
0.08
1.14
0.27
2.05

> <PUBCHEM_SHAPE_SELFOVERLAP>
1070.507

> <PUBCHEM_SHAPE_VOLUME>
267.8

> <PUBCHEM_COORDINATE_TYPE>
2
5
10

$$$$
