REMARK  15 active torsions:
REMARK  status: ('A' for Active; 'I' for Inactive)
REMARK    1  A    between atoms: P_1  and  O_3 
REMARK    2  A    between atoms: P_1  and  O_4 
REMARK    3  A    between atoms: P_1  and  C_10 
REMARK    4  A    between atoms: P_2  and  O_5 
REMARK    5  A    between atoms: P_2  and  O_6 
REMARK    6  A    between atoms: P_2  and  C_10 
REMARK    7  A    between atoms: O_3  and  C_26 
REMARK    8  A    between atoms: O_4  and  C_27 
REMARK    9  A    between atoms: O_5  and  C_28 
REMARK   10  A    between atoms: O_6  and  C_29 
REMARK   11  A    between atoms: O_9  and  C_19 
REMARK   12  A    between atoms: C_10  and  C_11 
REMARK   13  A    between atoms: C_11  and  C_12 
REMARK   14  A    between atoms: C_13  and  C_15 
REMARK   15  A    between atoms: C_14  and  C_16 
ROOT
HETATM    1  C   UNL     1       1.465  -0.061  -0.369  1.00  0.00     0.226 C 
ENDROOT
BRANCH   1   2
HETATM    2  P   UNL     1       3.106  -0.892  -0.253  1.00  0.00     0.345 P 
HETATM    3  O   UNL     1       3.946  -0.802  -1.494  1.00  0.00    -0.258 OA
BRANCH   2   4
HETATM    4  O   UNL     1       3.786  -0.264   1.075  1.00  0.00    -0.309 OA
BRANCH   4   5
HETATM    5  C   UNL     1       5.190  -0.344   1.241  1.00  0.00     0.123 C 
HETATM    6  C   UNL     1       5.635   0.703   2.251  1.00  0.00     0.040 C 
HETATM    7  C   UNL     1       5.563  -1.751   1.682  1.00  0.00     0.040 C 
ENDBRANCH   4   5
ENDBRANCH   2   4
BRANCH   2   8
HETATM    8  O   UNL     1       2.714  -2.393   0.209  1.00  0.00    -0.309 OA
BRANCH   8   9
HETATM    9  C   UNL     1       2.254  -3.305  -0.773  1.00  0.00     0.123 C 
HETATM   10  C   UNL     1       3.446  -3.870  -1.530  1.00  0.00     0.040 C 
HETATM   11  C   UNL     1       1.440  -4.399  -0.098  1.00  0.00     0.040 C 
ENDBRANCH   8   9
ENDBRANCH   2   8
ENDBRANCH   1   2
BRANCH   1  12
HETATM   12  P   UNL     1       1.306   1.623  -1.096  1.00  0.00     0.345 P 
HETATM   13  O   UNL     1       2.392   1.970  -2.075  1.00  0.00    -0.258 OA
BRANCH  12  14
HETATM   14  O   UNL     1       1.218   2.632   0.168  1.00  0.00    -0.309 OA
BRANCH  14  15
HETATM   15  C   UNL     1       2.380   3.037   0.869  1.00  0.00     0.123 C 
HETATM   16  C   UNL     1       1.990   3.485   2.269  1.00  0.00     0.040 C 
HETATM   17  C   UNL     1       3.073   4.146   0.092  1.00  0.00     0.040 C 
ENDBRANCH  14  15
ENDBRANCH  12  14
BRANCH  12  18
HETATM   18  O   UNL     1      -0.190   1.652  -1.715  1.00  0.00    -0.309 OA
BRANCH  18  19
HETATM   19  C   UNL     1      -0.430   1.045  -2.972  1.00  0.00     0.123 C 
HETATM   20  C   UNL     1       0.076   1.962  -4.075  1.00  0.00     0.040 C 
HETATM   21  C   UNL     1      -1.917   0.756  -3.113  1.00  0.00     0.040 C 
ENDBRANCH  18  19
ENDBRANCH  12  18
ENDBRANCH   1  12
BRANCH   1  22
HETATM   22  C   UNL     1       0.669  -0.205   0.952  1.00  0.00     0.067 C 
BRANCH  22  23
HETATM   23  C   UNL     1      -0.832  -0.246   0.811  1.00  0.00    -0.055 A 
HETATM   24  C   UNL     1      -1.569   0.937   0.852  1.00  0.00     0.018 A 
HETATM   25  C   UNL     1      -2.958   0.898   0.723  1.00  0.00    -0.016 A 
HETATM   26  C   UNL     1      -3.608  -0.325   0.553  1.00  0.00     0.079 A 
HETATM   27  C   UNL     1      -2.871  -1.508   0.512  1.00  0.00    -0.016 A 
HETATM   28  C   UNL     1      -1.482  -1.468   0.641  1.00  0.00     0.018 A 
BRANCH  25  29
HETATM   29  C   UNL     1      -3.730   2.175   0.768  1.00  0.00    -0.021 C 
HETATM   30  C   UNL     1      -2.785   3.399   0.964  1.00  0.00     0.019 C 
HETATM   31  C   UNL     1      -4.752   2.175   1.946  1.00  0.00     0.019 C 
HETATM   32  C   UNL     1      -4.569   2.495  -0.513  1.00  0.00     0.019 C 
ENDBRANCH  25  29
BRANCH  26  33
HETATM   33  O   UNL     1      -4.966  -0.362   0.428  1.00  0.00    -0.360 OA
HETATM   34  H   UNL     1      -5.352  -1.237   0.394  1.00  0.00     0.217 HD
ENDBRANCH  26  33
BRANCH  27  35
HETATM   35  C   UNL     1      -3.549  -2.826   0.331  1.00  0.00    -0.021 C 
HETATM   36  C   UNL     1      -4.590  -3.200   1.437  1.00  0.00     0.019 C 
HETATM   37  C   UNL     1      -4.334  -2.876  -1.015  1.00  0.00     0.019 C 
HETATM   38  C   UNL     1      -2.516  -3.994   0.319  1.00  0.00     0.019 C 
ENDBRANCH  27  35
ENDBRANCH  22  23
ENDBRANCH   1  22
TORSDOF 15
