REMARK  11 active torsions:
REMARK  status: ('A' for Active; 'I' for Inactive)
REMARK    1  A    between atoms: P_1  and  O_4 
REMARK    2  A    between atoms: P_1  and  O_5 
REMARK    3  A    between atoms: P_1  and  C_11 
REMARK    4  A    between atoms: P_2  and  O_6 
REMARK    5  A    between atoms: P_2  and  O_7 
REMARK    6  A    between atoms: P_2  and  C_11 
REMARK    7  A    between atoms: O_3  and  C_11 
REMARK    8  A    between atoms: N_10  and  C_14 
REMARK    9  A    between atoms: C_11  and  C_12 
REMARK   10  A    between atoms: C_12  and  C_13 
REMARK   11  A    between atoms: C_13  and  C_14 
ROOT
HETATM    1  C   UNL     1       0.463  -0.001  -0.481  1.00  0.00     0.252 C 
ENDROOT
BRANCH   1   2
HETATM    2  P   UNL     1       1.010  -1.571   0.299  1.00  0.00     0.283 P 
HETATM    3  O   UNL     1       0.205  -1.960   1.503  1.00  0.00    -0.651 OA
BRANCH   2   4
HETATM    4  O   UNL     1       2.590  -1.364   0.570  1.00  0.00    -0.327 OA
HETATM    5  H   UNL     1       3.090  -2.072   1.029  1.00  0.00     0.220 HD
ENDBRANCH   2   4
BRANCH   2   6
HETATM    6  O   UNL     1       0.965  -2.640  -0.911  1.00  0.00    -0.327 OA
HETATM    7  H   UNL     1       1.169  -3.581  -0.721  1.00  0.00     0.220 HD
ENDBRANCH   2   6
ENDBRANCH   1   2
BRANCH   1   8
HETATM    8  P   UNL     1       0.955   1.585   0.305  1.00  0.00     0.283 P 
HETATM    9  O   UNL     1       0.134   1.944   1.509  1.00  0.00    -0.651 OA
BRANCH   8  10
HETATM   10  O   UNL     1       2.540   1.435   0.577  1.00  0.00    -0.327 OA
HETATM   11  H   UNL     1       3.014   2.159   1.039  1.00  0.00     0.220 HD
ENDBRANCH   8  10
BRANCH   8  12
HETATM   12  O   UNL     1       0.873   2.655  -0.902  1.00  0.00    -0.327 OA
HETATM   13  H   UNL     1       1.042   3.602  -0.711  1.00  0.00     0.220 HD
ENDBRANCH   8  12
ENDBRANCH   1   8
BRANCH   1  14
HETATM   14  O   UNL     1       1.279   0.028  -1.663  1.00  0.00    -0.368 OA
HETATM   15  H   UNL     1       1.085  -0.771  -2.183  1.00  0.00     0.212 HD
ENDBRANCH   1  14
BRANCH   1  16
HETATM   16  C   UNL     1      -0.998  -0.021  -0.978  1.00  0.00     0.065 C 
BRANCH  16  17
HETATM   17  C   UNL     1      -2.066  -0.054   0.114  1.00  0.00     0.034 C 
BRANCH  17  18
HETATM   18  C   UNL     1      -3.469   0.009  -0.495  1.00  0.00     0.267 C 
BRANCH  18  19
HETATM   19  N   UNL     1      -4.480  -0.043   0.555  1.00  0.00     0.078 N 
HETATM   20  H   UNL     1      -4.394  -0.918   1.071  1.00  0.00     0.312 HD
HETATM   21  H   UNL     1      -5.407  -0.052   0.131  1.00  0.00     0.312 HD
ENDBRANCH  18  19
ENDBRANCH  17  18
ENDBRANCH  16  17
ENDBRANCH   1  16
TORSDOF 11
