REMARK  7 active torsions:
REMARK  status: ('A' for Active; 'I' for Inactive)
REMARK    1  A    between atoms: O_1  and  C_25 
REMARK    2  A    between atoms: O_1  and  C_28 
REMARK    3  A    between atoms: O_2  and  C_24 
REMARK    4  A    between atoms: N_3  and  C_20 
REMARK    5  A    between atoms: C_4  and  C_11 
REMARK    6  A    between atoms: C_5  and  C_10 
REMARK    7  A    between atoms: C_20  and  C_25 
ROOT
HETATM    1  C   UNL     1       2.633   1.730   0.178  1.00  0.00     0.032 C 
HETATM    2  C   UNL     1       2.424   0.416  -0.641  1.00  0.00     0.060 C 
HETATM    3  C   UNL     1       3.040   1.423   1.628  1.00  0.00     0.015 C 
HETATM    4  C   UNL     1       3.562  -0.578  -0.427  1.00  0.00    -0.043 A 
HETATM    5  C   UNL     1       4.357   0.649   1.665  1.00  0.00     0.040 C 
HETATM    6  C   UNL     1       4.433  -0.484   0.674  1.00  0.00    -0.048 A 
HETATM    7  C   UNL     1       3.729  -1.630  -1.345  1.00  0.00     0.011 A 
HETATM    8  C   UNL     1       5.454  -1.437   0.827  1.00  0.00     0.044 A 
HETATM    9  C   UNL     1       4.741  -2.574  -1.175  1.00  0.00     0.037 A 
HETATM   10  C   UNL     1       5.603  -2.478  -0.089  1.00  0.00     0.066 A 
ENDROOT
BRANCH   2  11
HETATM   11  C   UNL     1       1.049  -0.227  -0.455  1.00  0.00    -0.049 A 
HETATM   12  C   UNL     1       0.884  -1.227   0.494  1.00  0.00     0.011 A 
HETATM   13  C   UNL     1      -0.370  -1.814   0.664  1.00  0.00     0.037 A 
HETATM   14  C   UNL     1      -1.448  -1.396  -0.116  1.00  0.00     0.068 A 
HETATM   15  C   UNL     1      -1.272  -0.390  -1.066  1.00  0.00     0.037 A 
HETATM   16  C   UNL     1      -0.018   0.197  -1.236  1.00  0.00     0.011 A 
BRANCH  14  17
HETATM   17  O   UNL     1      -2.671  -1.968   0.050  1.00  0.00    -0.349 OA
BRANCH  17  18
HETATM   18  C   UNL     1      -3.811  -1.154  -0.222  1.00  0.00     0.206 C 
BRANCH  18  19
HETATM   19  C   UNL     1      -4.966  -1.624   0.647  1.00  0.00     0.299 C 
BRANCH  19  20
HETATM   20  N   UNL     1      -6.149  -0.809   0.415  1.00  0.00     0.090 N 
HETATM   21  C   UNL     1      -7.274  -1.202   1.263  1.00  0.00     0.272 C 
HETATM   22  C   UNL     1      -8.458  -0.516   0.598  1.00  0.00     0.032 C 
HETATM   23  C   UNL     1      -8.048  -0.337  -0.860  1.00  0.00     0.032 C 
HETATM   24  C   UNL     1      -6.648  -0.925  -0.955  1.00  0.00     0.272 C 
ENDBRANCH  19  20
ENDBRANCH  18  19
ENDBRANCH  17  18
ENDBRANCH  14  17
ENDBRANCH   2  11
BRANCH   1  25
HETATM   25  C   UNL     1       1.486   2.720   0.033  1.00  0.00    -0.053 A 
HETATM   26  C   UNL     1       1.418   3.542  -1.089  1.00  0.00     0.007 A 
HETATM   27  C   UNL     1       0.367   4.450  -1.221  1.00  0.00     0.001 A 
HETATM   28  C   UNL     1      -0.613   4.531  -0.232  1.00  0.00     0.000 A 
HETATM   29  C   UNL     1      -0.541   3.706   0.890  1.00  0.00     0.001 A 
HETATM   30  C   UNL     1       0.510   2.798   1.023  1.00  0.00     0.007 A 
ENDBRANCH   1  25
BRANCH  10  31
HETATM   31  O   UNL     1       6.595  -3.394   0.078  1.00  0.00    -0.361 OA
HETATM   32  H   UNL     1       6.552  -4.041  -0.647  1.00  0.00     0.217 HD
ENDBRANCH  10  31
TORSDOF 7
