REMARK  1 active torsions:
REMARK  status: ('A' for Active; 'I' for Inactive)
REMARK    1  A    between atoms: O_2  and  C_20 
ROOT
HETATM    1  O   UNL     1       4.882   1.291   0.121  1.00  0.00    -0.297 OA
HETATM    2  C   UNL     1       2.595   0.497   0.363  1.00  0.00     0.024 C 
HETATM    3  C   UNL     1       2.029  -0.576  -0.594  1.00  0.00     0.031 C 
HETATM    4  C   UNL     1       1.901   1.825   0.055  1.00  0.00     0.018 C 
HETATM    5  C   UNL     1      -0.243   0.508  -0.585  1.00  0.00     0.048 A 
HETATM    6  C   UNL     1       0.560  -0.764  -0.335  1.00  0.00    -0.070 A 
HETATM    7  C   UNL     1       3.048  -1.713  -0.514  1.00  0.00     0.018 C 
HETATM    8  C   UNL     1       0.370   1.703   0.200  1.00  0.00     0.015 C 
HETATM    9  C   UNL     1       4.059   0.397  -0.027  1.00  0.00     0.136 C 
HETATM   10  C   UNL     1       4.389  -0.970  -0.603  1.00  0.00     0.080 C 
HETATM   11  C   UNL     1       2.503   0.155   1.862  1.00  0.00     0.024 C 
HETATM   12  C   UNL     1      -1.737   0.368  -0.329  1.00  0.00    -0.043 A 
HETATM   13  C   UNL     1       0.004  -1.908   0.088  1.00  0.00    -0.018 A 
HETATM   14  C   UNL     1      -1.453  -2.064   0.379  1.00  0.00     0.066 A 
HETATM   15  C   UNL     1      -2.295  -0.841   0.125  1.00  0.00    -0.045 A 
HETATM   16  C   UNL     1      -2.595   1.452  -0.589  1.00  0.00     0.011 A 
HETATM   17  C   UNL     1      -3.680  -0.930   0.343  1.00  0.00     0.044 A 
HETATM   18  C   UNL     1      -3.970   1.351  -0.372  1.00  0.00     0.037 A 
HETATM   19  C   UNL     1      -4.512   0.161   0.099  1.00  0.00     0.066 A 
ENDROOT
BRANCH  19  20
HETATM   20  O   UNL     1      -5.852   0.059   0.313  1.00  0.00    -0.361 OA
HETATM   21  H   UNL     1      -6.052  -0.836   0.637  1.00  0.00     0.217 HD
ENDBRANCH  19  20
TORSDOF 1
