25022354
  -OEChem-05062210143D

 54 55  0     1  0  0  0  0  0999 V2000
    1.7724   -0.8999   -2.3211 F   0  0  0  0  0  0  0  0  0  0  0  0
    4.5327   -0.7559    2.3986 F   0  0  0  0  0  0  0  0  0  0  0  0
    3.5300   -3.1233    1.4681 F   0  0  0  0  0  0  0  0  0  0  0  0
   -2.8540   -1.0553   -0.4917 O   0  0  0  0  0  0  0  0  0  0  0  0
   -3.9143   -0.0196    2.5617 O   0  0  0  0  0  0  0  0  0  0  0  0
    0.7496    1.0804    1.0249 O   0  0  0  0  0  0  0  0  0  0  0  0
   -1.4259    1.3717    0.2603 N   0  0  0  0  0  0  0  0  0  0  0  0
   -4.0678    1.7201    1.0942 N   0  0  0  0  0  0  0  0  0  0  0  0
    2.3144    4.0222   -1.3319 N   0  0  0  0  0  0  0  0  0  0  0  0
   -1.9715    0.3834    1.1989 C   0  0  2  0  0  0  0  0  0  0  0  0
   -2.3892    1.9839   -0.6549 C   0  0  0  0  0  0  0  0  0  0  0  0
   -1.9358   -1.0167    0.5836 C   0  0  0  0  0  0  0  0  0  0  0  0
   -3.4714    2.6514    0.1626 C   0  0  0  0  0  0  0  0  0  0  0  0
   -3.3897    0.6841    1.6948 C   0  0  0  0  0  0  0  0  0  0  0  0
   -0.0484    1.6063    0.2443 C   0  0  0  0  0  0  0  0  0  0  0  0
    0.4644    2.5664   -0.7991 C   0  0  0  0  0  0  0  0  0  0  0  0
    1.9836    2.7268   -0.7234 C   0  0  1  0  0  0  0  0  0  0  0  0
   -2.8792   -2.3329   -1.1194 C   0  0  0  0  0  0  0  0  0  0  0  0
    2.7560    1.6222   -1.4772 C   0  0  0  0  0  0  0  0  0  0  0  0
   -1.4852   -2.6325   -1.6688 C   0  0  0  0  0  0  0  0  0  0  0  0
   -3.9006   -2.2685   -2.2529 C   0  0  0  0  0  0  0  0  0  0  0  0
   -3.2920   -3.3762   -0.0823 C   0  0  0  0  0  0  0  0  0  0  0  0
    2.9616    0.3505   -0.6907 C   0  0  0  0  0  0  0  0  0  0  0  0
    2.4503   -0.8571   -1.1656 C   0  0  0  0  0  0  0  0  0  0  0  0
    3.6648    0.3848    0.5133 C   0  0  0  0  0  0  0  0  0  0  0  0
    3.8570   -0.7887    1.2425 C   0  0  0  0  0  0  0  0  0  0  0  0
    2.6425   -2.0309   -0.4365 C   0  0  0  0  0  0  0  0  0  0  0  0
    3.3459   -1.9966    0.7676 C   0  0  0  0  0  0  0  0  0  0  0  0
   -1.3307    0.3832    2.0899 H   0  0  0  0  0  0  0  0  0  0  0  0
   -1.9290    2.7254   -1.3093 H   0  0  0  0  0  0  0  0  0  0  0  0
   -2.8020    1.2063   -1.3037 H   0  0  0  0  0  0  0  0  0  0  0  0
   -2.2054   -1.7237    1.3735 H   0  0  0  0  0  0  0  0  0  0  0  0
   -0.9095   -1.2131    0.2610 H   0  0  0  0  0  0  0  0  0  0  0  0
   -4.2662    3.0428   -0.4793 H   0  0  0  0  0  0  0  0  0  0  0  0
   -3.0634    3.4789    0.7534 H   0  0  0  0  0  0  0  0  0  0  0  0
   -0.0207    3.5304   -0.5958 H   0  0  0  0  0  0  0  0  0  0  0  0
    0.1612    2.2282   -1.7965 H   0  0  0  0  0  0  0  0  0  0  0  0
    2.3143    2.7920    0.3192 H   0  0  0  0  0  0  0  0  0  0  0  0
   -5.0119    1.9127    1.4145 H   0  0  0  0  0  0  0  0  0  0  0  0
    2.2726    1.4148   -2.4404 H   0  0  0  0  0  0  0  0  0  0  0  0
    3.7637    1.9800   -1.7343 H   0  0  0  0  0  0  0  0  0  0  0  0
   -1.0689   -1.7642   -2.1925 H   0  0  0  0  0  0  0  0  0  0  0  0
   -0.7696   -2.9241   -0.8928 H   0  0  0  0  0  0  0  0  0  0  0  0
   -1.5200   -3.4698   -2.3757 H   0  0  0  0  0  0  0  0  0  0  0  0
   -3.6322   -1.4870   -2.9732 H   0  0  0  0  0  0  0  0  0  0  0  0
   -4.8925   -2.0062   -1.8672 H   0  0  0  0  0  0  0  0  0  0  0  0
   -3.9775   -3.2208   -2.7875 H   0  0  0  0  0  0  0  0  0  0  0  0
   -2.4884   -3.6302    0.6171 H   0  0  0  0  0  0  0  0  0  0  0  0
   -4.1495   -3.0332    0.5080 H   0  0  0  0  0  0  0  0  0  0  0  0
   -3.5727   -4.3164   -0.5714 H   0  0  0  0  0  0  0  0  0  0  0  0
    1.8672    4.7735   -0.8077 H   0  0  0  0  0  0  0  0  0  0  0  0
    3.3179    4.1873   -1.2621 H   0  0  0  0  0  0  0  0  0  0  0  0
    4.0789    1.3149    0.8924 H   0  0  0  0  0  0  0  0  0  0  0  0
    2.2431   -2.9707   -0.8058 H   0  0  0  0  0  0  0  0  0  0  0  0
  1 24  1  0  0  0  0
  2 26  1  0  0  0  0
  3 28  1  0  0  0  0
  4 12  1  0  0  0  0
  4 18  1  0  0  0  0
  5 14  2  0  0  0  0
  6 15  2  0  0  0  0
  7 10  1  0  0  0  0
  7 11  1  0  0  0  0
  7 15  1  0  0  0  0
  8 13  1  0  0  0  0
  8 14  1  0  0  0  0
  8 39  1  0  0  0  0
  9 17  1  0  0  0  0
  9 51  1  0  0  0  0
  9 52  1  0  0  0  0
 10 12  1  0  0  0  0
 10 14  1  0  0  0  0
 10 29  1  0  0  0  0
 11 13  1  0  0  0  0
 11 30  1  0  0  0  0
 11 31  1  0  0  0  0
 12 32  1  0  0  0  0
 12 33  1  0  0  0  0
 13 34  1  0  0  0  0
 13 35  1  0  0  0  0
 15 16  1  0  0  0  0
 16 17  1  0  0  0  0
 16 36  1  0  0  0  0
 16 37  1  0  0  0  0
 17 19  1  0  0  0  0
 17 38  1  0  0  0  0
 18 20  1  0  0  0  0
 18 21  1  0  0  0  0
 18 22  1  0  0  0  0
 19 23  1  0  0  0  0
 19 40  1  0  0  0  0
 19 41  1  0  0  0  0
 20 42  1  0  0  0  0
 20 43  1  0  0  0  0
 20 44  1  0  0  0  0
 21 45  1  0  0  0  0
 21 46  1  0  0  0  0
 21 47  1  0  0  0  0
 22 48  1  0  0  0  0
 22 49  1  0  0  0  0
 22 50  1  0  0  0  0
 23 24  1  0  0  0  0
 23 25  2  0  0  0  0
 24 27  2  0  0  0  0
 25 26  1  0  0  0  0
 25 53  1  0  0  0  0
 26 28  2  0  0  0  0
 27 28  1  0  0  0  0
 27 54  1  0  0  0  0
M  END
> <PUBCHEM_COMPOUND_CID>
25022354

> <PUBCHEM_CONFORMER_RMSD>
1.4

> <PUBCHEM_CONFORMER_DIVERSEORDER>
1
21
53
34
12
4
45
58
43
59
28
51
8
46
50
49
52
19
10
38
16
17
22
42
37
7
27
18
33
57
55
40
56
13
6
48
5
54
36
39
2
9
26
30
35
11
24
47
25
14
31
3
29
23
41
44
15
20
32

> <PUBCHEM_MMFF94_PARTIAL_CHARGES>
30
1 -0.19
10 0.36
11 0.3
12 0.28
13 0.3
14 0.57
15 0.57
16 0.06
17 0.27
18 0.28
19 0.14
2 -0.19
23 -0.14
24 0.19
25 -0.15
26 0.19
27 -0.15
28 0.19
3 -0.19
39 0.37
4 -0.56
5 -0.57
51 0.36
52 0.36
53 0.15
54 0.15
6 -0.57
7 -0.66
8 -0.73
9 -0.99

> <PUBCHEM_EFFECTIVE_ROTOR_COUNT>
9

> <PUBCHEM_PHARMACOPHORE_FEATURES>
9
1 4 acceptor
1 5 acceptor
1 6 acceptor
1 8 donor
1 9 cation
1 9 donor
4 18 20 21 22 hydrophobe
6 23 24 25 26 27 28 rings
6 7 8 10 11 13 14 rings

> <PUBCHEM_HEAVY_ATOM_COUNT>
28

> <PUBCHEM_ATOM_DEF_STEREO_COUNT>
2

> <PUBCHEM_ATOM_UDEF_STEREO_COUNT>
0

> <PUBCHEM_BOND_DEF_STEREO_COUNT>
0

> <PUBCHEM_BOND_UDEF_STEREO_COUNT>
0

> <PUBCHEM_ISOTOPIC_ATOM_COUNT>
0

> <PUBCHEM_COMPONENT_COUNT>
1

> <PUBCHEM_CACTVS_TAUTO_COUNT>
2

> <PUBCHEM_CONFORMER_ID>
017DCF9200000001

> <PUBCHEM_MMFF94_ENERGY>
67.2403

> <PUBCHEM_FEATURE_SELFOVERLAP>
45.671

> <PUBCHEM_SHAPE_FINGERPRINT>
12156800 1 16612995541978849191
12422481 6 17984736422709081131
12553582 1 18334021579416521266
12788726 201 17916032446151102167
13004483 165 17826787032944495136
13083527 12 18054487356360749516
13583140 156 17967824833755180537
14178342 30 18131635581924492378
15403338 16 17026566855252567531
17138139 8 17047950599502109454
17980427 23 18339069484818867224
19026451 147 18123450941784970087
21033648 29 17843119208148515928
21315759 227 16950572081631627290
21421861 104 18265908027886964715
22393880 68 18268443480458408620
23557571 272 17918275359234405286
23559900 14 17631464397028369356
238918 7 17330546553912928532
463206 1 17479442891257267927
57527293 21 18339626855799402746
7064713 232 17988927717124004275
7097593 13 18335424547489581662

> <PUBCHEM_SHAPE_MULTIPOLES>
521.85
8.68
4.34
2.1
0.17
0.27
0.27
-2.82
2.37
-0.88
-1.44
-0.21
-0.6
-3.36

> <PUBCHEM_SHAPE_SELFOVERLAP>
1084.476

> <PUBCHEM_SHAPE_VOLUME>
298

> <PUBCHEM_COORDINATE_TYPE>
2
5
10

$$$$
