REMARK  8 active torsions:
REMARK  status: ('A' for Active; 'I' for Inactive)
REMARK    1  A    between atoms: O_4  and  C_12 
REMARK    2  A    between atoms: O_4  and  C_18 
REMARK       I    between atoms: N_7  and  C_15 
REMARK    3  A    between atoms: N_9  and  C_17 
REMARK    4  A    between atoms: C_10  and  C_12 
REMARK    5  A    between atoms: C_15  and  C_16 
REMARK    6  A    between atoms: C_16  and  C_17 
REMARK    7  A    between atoms: C_17  and  C_19 
REMARK    8  A    between atoms: C_19  and  C_23 
ROOT
HETATM    1  O   UNL     1      -3.914  -0.020   2.562  1.00  0.00    -0.271 OA
HETATM    2  O   UNL     1       0.750   1.080   1.025  1.00  0.00    -0.273 OA
HETATM    3  N   UNL     1      -1.426   1.372   0.260  1.00  0.00    -0.335 N 
HETATM    4  N   UNL     1      -4.068   1.720   1.094  1.00  0.00    -0.358 N 
HETATM    5  C   UNL     1      -1.972   0.383   1.199  1.00  0.00     0.203 C 
HETATM    6  C   UNL     1      -2.389   1.984  -0.655  1.00  0.00     0.146 C 
HETATM    7  C   UNL     1      -3.471   2.651   0.163  1.00  0.00     0.142 C 
HETATM    8  C   UNL     1      -3.390   0.684   1.695  1.00  0.00     0.242 C 
HETATM    9  C   UNL     1      -0.048   1.606   0.244  1.00  0.00     0.222 C 
HETATM   10  H   UNL     1      -5.012   1.913   1.415  1.00  0.00     0.162 HD
ENDROOT
BRANCH   9  11
HETATM   11  C   UNL     1       0.464   2.566  -0.799  1.00  0.00     0.138 C 
BRANCH  11  12
HETATM   12  C   UNL     1       1.984   2.727  -0.723  1.00  0.00     0.231 C 
BRANCH  12  13
HETATM   13  N   UNL     1       2.314   4.022  -1.332  1.00  0.00     0.083 N 
HETATM   14  H   UNL     1       1.867   4.774  -0.808  1.00  0.00     0.313 HD
HETATM   15  H   UNL     1       3.318   4.187  -1.262  1.00  0.00     0.313 HD
ENDBRANCH  12  13
BRANCH  12  16
HETATM   16  C   UNL     1       2.756   1.622  -1.477  1.00  0.00     0.077 C 
BRANCH  16  17
HETATM   17  C   UNL     1       2.962   0.350  -0.691  1.00  0.00    -0.014 A 
HETATM   18  C   UNL     1       2.450  -0.857  -1.166  1.00  0.00     0.125 A 
HETATM   19  F   UNL     1       1.772  -0.900  -2.321  1.00  0.00    -0.205 F 
HETATM   20  C   UNL     1       2.643  -2.031  -0.437  1.00  0.00     0.088 A 
HETATM   21  C   UNL     1       3.346  -1.997   0.768  1.00  0.00     0.157 A 
HETATM   22  F   UNL     1       3.530  -3.123   1.468  1.00  0.00    -0.203 F 
HETATM   23  C   UNL     1       3.857  -0.789   1.242  1.00  0.00     0.155 A 
HETATM   24  F   UNL     1       4.533  -0.756   2.399  1.00  0.00    -0.203 F 
HETATM   25  C   UNL     1       3.665   0.385   0.513  1.00  0.00     0.055 A 
ENDBRANCH  16  17
ENDBRANCH  12  16
ENDBRANCH  11  12
ENDBRANCH   9  11
BRANCH   5  26
HETATM   26  C   UNL     1      -1.936  -1.017   0.584  1.00  0.00     0.203 C 
BRANCH  26  27
HETATM   27  O   UNL     1      -2.854  -1.055  -0.492  1.00  0.00    -0.379 OA
BRANCH  27  28
HETATM   28  C   UNL     1      -2.879  -2.333  -1.119  1.00  0.00     0.050 C 
HETATM   29  C   UNL     1      -1.485  -2.632  -1.669  1.00  0.00     0.045 C 
HETATM   30  C   UNL     1      -3.901  -2.269  -2.253  1.00  0.00     0.045 C 
HETATM   31  C   UNL     1      -3.292  -3.376  -0.082  1.00  0.00     0.045 C 
ENDBRANCH  27  28
ENDBRANCH  26  27
ENDBRANCH   5  26
TORSDOF 8
