REMARK  3 active torsions:
REMARK  status: ('A' for Active; 'I' for Inactive)
REMARK    1  A    between atoms: S_1  and  O_3 
REMARK    2  A    between atoms: S_1  and  O_4 
REMARK    3  A    between atoms: O_3  and  C_24 
ROOT
HETATM    1  O   UNL     1      -6.049  -1.274   0.169  1.00  0.00    -0.297 OA
HETATM    2  C   UNL     1      -3.188   0.666  -0.181  1.00  0.00     0.006 C 
HETATM    3  C   UNL     1      -3.712  -0.651   0.429  1.00  0.00     0.021 C 
HETATM    4  C   UNL     1      -1.677   0.797  -0.001  1.00  0.00    -0.000 C 
HETATM    5  C   UNL     1      -0.991  -0.369  -0.779  1.00  0.00     0.024 C 
HETATM    6  C   UNL     1      -3.112  -1.805  -0.368  1.00  0.00     0.018 C 
HETATM    7  C   UNL     1      -4.121   1.733   0.381  1.00  0.00     0.013 C 
HETATM    8  C   UNL     1      -1.572  -1.748  -0.362  1.00  0.00     0.011 C 
HETATM    9  C   UNL     1      -1.130   2.128  -0.517  1.00  0.00     0.010 C 
HETATM   10  C   UNL     1      -5.198  -0.399   0.251  1.00  0.00     0.135 C 
HETATM   11  C   UNL     1      -5.507   1.089   0.222  1.00  0.00     0.079 C 
HETATM   12  C   UNL     1      -3.477  -0.839   1.940  1.00  0.00     0.024 C 
HETATM   13  C   UNL     1       0.529  -0.259  -0.712  1.00  0.00    -0.047 A 
HETATM   14  C   UNL     1       0.356   2.241  -0.188  1.00  0.00     0.039 C 
HETATM   15  C   UNL     1       1.148   0.988  -0.475  1.00  0.00    -0.049 A 
HETATM   16  C   UNL     1       1.352  -1.370  -0.971  1.00  0.00     0.011 A 
HETATM   17  C   UNL     1       2.551   1.081  -0.452  1.00  0.00     0.045 A 
HETATM   18  C   UNL     1       2.744  -1.262  -0.952  1.00  0.00     0.039 A 
HETATM   19  C   UNL     1       3.344  -0.037  -0.689  1.00  0.00     0.091 A 
ENDROOT
BRANCH  19  20
HETATM   20  O   UNL     1       4.700   0.069  -0.667  1.00  0.00    -0.221 OA
BRANCH  20  21
HETATM   21  S   UNL     1       5.496  -0.172   0.751  1.00  0.00     0.245 S 
HETATM   22  O   UNL     1       5.032   0.800   1.724  1.00  0.00    -0.579 OA
HETATM   23  O   UNL     1       5.434  -1.589   1.057  1.00  0.00    -0.579 OA
BRANCH  21  24
HETATM   24  O   UNL     1       7.049   0.181   0.392  1.00  0.00    -0.273 OA
HETATM   25  H   UNL     1       7.391  -0.223  -0.440  1.00  0.00     0.234 HD
ENDBRANCH  21  24
ENDBRANCH  20  21
ENDBRANCH  19  20
TORSDOF 3
