REMARK  5 active torsions:
REMARK  status: ('A' for Active; 'I' for Inactive)
REMARK    1  A    between atoms: O_7  and  C_14 
REMARK    2  A    between atoms: N_8  and  C_15 
REMARK    3  A    between atoms: C_10  and  C_14 
REMARK    4  A    between atoms: C_14  and  C_16 
REMARK    5  A    between atoms: C_19  and  C_22 
ROOT
HETATM    1  N   UNL     1       5.424   0.395   0.866  1.00  0.00    -0.191 NA
HETATM    2  C   UNL     1       0.187   1.247  -0.035  1.00  0.00     0.031 A 
HETATM    3  C   UNL     1       0.762   0.036  -0.420  1.00  0.00     0.047 A 
HETATM    4  C   UNL     1       0.969   2.227   0.578  1.00  0.00     0.031 A 
HETATM    5  C   UNL     1       2.118  -0.196  -0.192  1.00  0.00     0.070 A 
HETATM    6  C   UNL     1       2.325   1.994   0.807  1.00  0.00     0.026 A 
HETATM    7  C   UNL     1       2.900   0.783   0.421  1.00  0.00     0.059 A 
HETATM    8  C   UNL     1       4.294   0.569   0.667  1.00  0.00     0.100 C 
ENDROOT
BRANCH   5   9
HETATM    9  C   UNL     1       2.700  -1.506  -0.618  1.00  0.00     0.419 C 
HETATM   10  F   UNL     1       1.775  -2.324  -1.196  1.00  0.00    -0.166 F 
HETATM   11  F   UNL     1       3.706  -1.383  -1.531  1.00  0.00    -0.166 F 
HETATM   12  F   UNL     1       3.235  -2.223   0.412  1.00  0.00    -0.166 F 
ENDBRANCH   5   9
BRANCH   2  13
HETATM   13  N   UNL     1      -1.155   1.477  -0.261  1.00  0.00    -0.373 N 
HETATM   14  C   UNL     1      -2.180   0.448  -0.490  1.00  0.00     0.122 C 
HETATM   15  C   UNL     1      -3.462   1.263  -0.742  1.00  0.00     0.030 C 
HETATM   16  C   UNL     1      -2.946   2.571  -1.313  1.00  0.00     0.022 C 
HETATM   17  C   UNL     1      -1.682   2.821  -0.499  1.00  0.00     0.123 C 
BRANCH  14  18
HETATM   18  C   UNL     1      -2.376  -0.469   0.713  1.00  0.00     0.248 C 
BRANCH  18  19
HETATM   19  O   UNL     1      -3.066   0.242   1.734  1.00  0.00    -0.384 OA
HETATM   20  H   UNL     1      -2.506   0.994   1.994  1.00  0.00     0.210 HD
ENDBRANCH  18  19
BRANCH  18  21
HETATM   21  C   UNL     1      -3.183  -1.698   0.358  1.00  0.00     0.414 C 
HETATM   22  F   UNL     1      -3.382  -2.478   1.442  1.00  0.00    -0.168 F 
HETATM   23  F   UNL     1      -4.398  -1.351  -0.121  1.00  0.00    -0.168 F 
HETATM   24  F   UNL     1      -2.567  -2.446  -0.582  1.00  0.00    -0.168 F 
ENDBRANCH  18  21
ENDBRANCH  14  18
ENDBRANCH   2  13
TORSDOF 5
