REMARK  1 active torsions:
REMARK  status: ('A' for Active; 'I' for Inactive)
REMARK    1  A    between atoms: O_1  and  C_7 
ROOT
HETATM    1  O   UNL     1       5.980  -0.776   0.727  1.00  0.00    -0.298 OA
HETATM    2  C   UNL     1      -1.606   0.711   0.021  1.00  0.00     0.003 C 
HETATM    3  C   UNL     1      -2.259  -0.561   0.617  1.00  0.00     0.003 C 
HETATM    4  C   UNL     1      -0.103   0.786   0.309  1.00  0.00     0.002 C 
HETATM    5  C   UNL     1       0.587  -0.440  -0.363  1.00  0.00     0.020 C 
HETATM    6  C   UNL     1      -3.754  -0.301   0.251  1.00  0.00     0.128 C 
HETATM    7  C   UNL     1      -1.581  -1.794  -0.014  1.00  0.00     0.014 C 
HETATM    8  C   UNL     1      -2.511   1.838   0.510  1.00  0.00     0.010 C 
HETATM    9  C   UNL     1      -0.047  -1.762   0.149  1.00  0.00     0.010 C 
HETATM   10  C   UNL     1       0.577   2.105  -0.105  1.00  0.00    -0.010 C 
HETATM   11  C   UNL     1      -3.925   1.217   0.539  1.00  0.00     0.052 C 
HETATM   12  C   UNL     1       2.108  -0.381  -0.235  1.00  0.00    -0.072 C 
HETATM   13  C   UNL     1      -2.114  -0.675   2.164  1.00  0.00     0.020 C 
HETATM   14  C   UNL     1       2.040   2.061   0.374  1.00  0.00     0.039 C 
HETATM   15  C   UNL     1       2.756   0.750   0.123  1.00  0.00    -0.070 C 
HETATM   16  C   UNL     1       0.497   2.418  -1.604  1.00  0.00     0.010 C 
HETATM   17  C   UNL     1       2.865  -1.647  -0.577  1.00  0.00     0.042 C 
HETATM   18  C   UNL     1      -4.064  -0.575  -1.166  1.00  0.00    -0.078 C 
HETATM   19  C   UNL     1       4.250   0.831   0.316  1.00  0.00     0.112 C 
HETATM   20  C   UNL     1       4.339  -1.430  -0.886  1.00  0.00     0.083 C 
HETATM   21  C   UNL     1       4.935  -0.505   0.139  1.00  0.00     0.131 C 
HETATM   22  C   UNL     1      -4.316  -0.797  -2.319  1.00  0.00     0.015 C 
ENDROOT
BRANCH   6  23
HETATM   23  O   UNL     1      -4.654  -1.074   1.032  1.00  0.00    -0.377 OA
HETATM   24  H   UNL     1      -4.423  -2.012   0.915  1.00  0.00     0.211 HD
ENDBRANCH   6  23
TORSDOF 1
