REMARK  7 active torsions:
REMARK  status: ('A' for Active; 'I' for Inactive)
REMARK    1  A    between atoms: O_1  and  C_25 
REMARK    2  A    between atoms: C_3  and  C_8 
REMARK    3  A    between atoms: C_8  and  C_13 
REMARK    4  A    between atoms: C_13  and  C_16 
REMARK    5  A    between atoms: C_15  and  C_18 
REMARK    6  A    between atoms: C_16  and  C_17 
REMARK    7  A    between atoms: C_17  and  C_19 
ROOT
HETATM    1  C   UNL     1       1.229   1.287   0.296  1.00  0.00    -0.033 C 
HETATM    2  C   UNL     1       2.480   0.409   0.554  1.00  0.00    -0.002 C 
HETATM    3  C   UNL     1       0.218   0.180  -0.095  1.00  0.00     0.023 C 
HETATM    4  C   UNL     1       1.931  -0.817   1.312  1.00  0.00     0.006 C 
HETATM    5  C   UNL     1       0.434  -0.902   0.968  1.00  0.00     0.010 C 
HETATM    6  C   UNL     1       1.393   2.285  -0.874  1.00  0.00     0.010 C 
HETATM    7  C   UNL     1      -1.155   0.740  -0.361  1.00  0.00    -0.075 C 
HETATM    8  C   UNL     1       0.813   2.065   1.572  1.00  0.00     0.016 C 
HETATM    9  C   UNL     1       0.175   2.338  -1.816  1.00  0.00     0.005 C 
HETATM   10  C   UNL     1      -1.166   2.046  -1.130  1.00  0.00     0.034 C 
HETATM   11  C   UNL     1      -2.298   0.155   0.026  1.00  0.00     0.004 C 
ENDROOT
BRANCH  11  12
HETATM   12  C   UNL     1      -3.601   0.707  -0.252  1.00  0.00     0.008 C 
HETATM   13  C   UNL     1      -4.746   0.122   0.135  1.00  0.00    -0.050 C 
HETATM   14  C   UNL     1      -6.097   0.707  -0.211  1.00  0.00     0.070 C 
HETATM   15  C   UNL     1      -4.782  -1.135   0.877  1.00  0.00    -0.061 C 
HETATM   16  C   UNL     1      -7.056  -0.334  -0.801  1.00  0.00     0.122 C 
HETATM   17  C   UNL     1      -7.121  -1.594   0.063  1.00  0.00     0.036 C 
HETATM   18  C   UNL     1      -5.729  -2.174   0.329  1.00  0.00     0.041 C 
HETATM   19  C   UNL     1      -4.056  -1.350   1.986  1.00  0.00     0.019 C 
BRANCH  16  20
HETATM   20  O   UNL     1      -6.636  -0.690  -2.117  1.00  0.00    -0.395 OA
HETATM   21  H   UNL     1      -5.707  -0.971  -2.086  1.00  0.00     0.210 HD
ENDBRANCH  16  20
ENDBRANCH  11  12
BRANCH   2  22
HETATM   22  C   UNL     1       3.642   1.079   1.275  1.00  0.00    -0.014 C 
HETATM   23  C   UNL     1       4.084   2.332   0.508  1.00  0.00     0.010 C 
BRANCH  22  24
HETATM   24  C   UNL     1       4.854   0.141   1.456  1.00  0.00     0.005 C 
BRANCH  24  25
HETATM   25  C   UNL     1       5.438  -0.460   0.170  1.00  0.00     0.001 C 
BRANCH  25  26
HETATM   26  C   UNL     1       6.589  -1.439   0.421  1.00  0.00     0.004 C 
BRANCH  26  27
HETATM   27  C   UNL     1       7.222  -1.986  -0.873  1.00  0.00    -0.023 C 
HETATM   28  C   UNL     1       7.744  -0.876  -1.786  1.00  0.00     0.009 C 
HETATM   29  C   UNL     1       6.197  -2.835  -1.631  1.00  0.00     0.009 C 
ENDBRANCH  26  27
ENDBRANCH  25  26
ENDBRANCH  24  25
ENDBRANCH  22  24
ENDBRANCH   2  22
TORSDOF 7
