REMARK  14 active torsions:
REMARK  status: ('A' for Active; 'I' for Inactive)
REMARK    1  A    between atoms: O_1  and  C_20 
REMARK    2  A    between atoms: C_3  and  C_4 
REMARK    3  A    between atoms: C_3  and  C_5 
REMARK    4  A    between atoms: C_4  and  C_7 
REMARK    5  A    between atoms: C_5  and  C_11 
REMARK    6  A    between atoms: C_6  and  C_8 
REMARK    7  A    between atoms: C_6  and  C_9 
REMARK    8  A    between atoms: C_8  and  C_10 
REMARK    9  A    between atoms: C_9  and  C_13 
REMARK   10  A    between atoms: C_10  and  C_20 
REMARK   11  A    between atoms: C_14  and  C_15 
REMARK   12  A    between atoms: C_15  and  C_18 
REMARK   13  A    between atoms: C_16  and  C_17 
REMARK   14  A    between atoms: C_17  and  C_19 
ROOT
HETATM    1  C   UNL     1       2.049   1.257  -1.154  1.00  0.00     0.053 C 
ENDROOT
BRANCH   1   2
HETATM    2  C   UNL     1       1.522   2.229  -2.168  1.00  0.00    -0.027 C 
HETATM    3  C   UNL     1       0.313   2.804  -2.081  1.00  0.00    -0.030 C 
BRANCH   3   4
HETATM    4  C   UNL     1      -0.657   2.547  -0.965  1.00  0.00     0.027 C 
BRANCH   4   5
HETATM    5  C   UNL     1      -1.563   1.339  -1.226  1.00  0.00     0.004 C 
BRANCH   5   6
HETATM    6  C   UNL     1      -2.574   1.079  -0.106  1.00  0.00     0.011 C 
BRANCH   6   7
HETATM    7  C   UNL     1      -3.469  -0.115  -0.439  1.00  0.00     0.110 C 
BRANCH   7   8
HETATM    8  C   UNL     1      -4.496  -0.366   0.636  1.00  0.00     0.139 C 
HETATM    9  O   UNL     1      -4.628   0.271   1.670  1.00  0.00    -0.650 OA
BRANCH   8  10
HETATM   10  O   UNL     1      -5.289  -1.411   0.285  1.00  0.00    -0.776 OA
HETATM   11  H   UNL     1      -5.974  -1.593   0.963  1.00  0.00     0.167 HD
ENDBRANCH   8  10
ENDBRANCH   7   8
ENDBRANCH   6   7
ENDBRANCH   5   6
ENDBRANCH   4   5
ENDBRANCH   3   4
ENDBRANCH   1   2
BRANCH   1  12
HETATM   12  C   UNL     1       2.896   1.946  -0.124  1.00  0.00    -0.027 C 
HETATM   13  C   UNL     1       2.733   1.913   1.208  1.00  0.00    -0.027 C 
BRANCH  13  14
HETATM   14  C   UNL     1       1.666   1.188   1.976  1.00  0.00     0.053 C 
BRANCH  14  15
HETATM   15  C   UNL     1       2.253   0.157   2.896  1.00  0.00    -0.027 C 
HETATM   16  C   UNL     1       2.031  -1.160   2.781  1.00  0.00    -0.030 C 
BRANCH  16  17
HETATM   17  C   UNL     1       1.166  -1.772   1.717  1.00  0.00     0.027 C 
BRANCH  17  18
HETATM   18  C   UNL     1       1.982  -2.096   0.463  1.00  0.00     0.004 C 
BRANCH  18  19
HETATM   19  C   UNL     1       1.113  -2.756  -0.610  1.00  0.00    -0.000 C 
BRANCH  19  20
HETATM   20  C   UNL     1       1.897  -3.166  -1.858  1.00  0.00    -0.005 C 
HETATM   21  C   UNL     1       1.056  -3.888  -2.899  1.00  0.00     0.005 C 
ENDBRANCH  19  20
ENDBRANCH  18  19
ENDBRANCH  17  18
ENDBRANCH  16  17
ENDBRANCH  14  15
ENDBRANCH  13  14
ENDBRANCH   1  12
TORSDOF 14
