5282367
  -OEChem-05062210143D

 73 74  0     0  0  0  0  0  0999 V2000
   -3.2127    0.9693    1.5778 O   0  0  0  0  0  0  0  0  0  0  0  0
    0.7110    3.0737   -1.3658 O   0  0  0  0  0  0  0  0  0  0  0  0
   -5.0424   -2.1159   -1.5884 C   0  0  0  0  0  0  0  0  0  0  0  0
   -4.0856   -3.1041   -0.9086 C   0  0  0  0  0  0  0  0  0  0  0  0
   -2.5471    1.8375   -0.5328 C   0  0  0  0  0  0  0  0  0  0  0  0
   -0.3376   -1.9697   -0.2643 C   0  0  0  0  0  0  0  0  0  0  0  0
   -3.9438    1.6110   -1.0076 C   0  0  0  0  0  0  0  0  0  0  0  0
   -4.9882   -0.7328   -0.9649 C   0  0  0  0  0  0  0  0  0  0  0  0
   -1.7827   -2.3688   -0.0533 C   0  0  0  0  0  0  0  0  0  0  0  0
    0.6774   -2.9846    0.2765 C   0  0  0  0  0  0  0  0  0  0  0  0
   -1.5518    2.3495   -1.2811 C   0  0  0  0  0  0  0  0  0  0  0  0
   -2.6574   -2.6508   -1.0388 C   0  0  0  0  0  0  0  0  0  0  0  0
   -4.1529    0.1976   -1.4678 C   0  0  0  0  0  0  0  0  0  0  0  0
   -0.9847    1.6793    1.4772 C   0  0  0  0  0  0  0  0  0  0  0  0
   -2.3182    1.4590    0.8957 C   0  0  0  0  0  0  0  0  0  0  0  0
    0.0393    2.2230    0.7087 C   0  0  0  0  0  0  0  0  0  0  0  0
    3.1201   -2.4137    0.7772 C   0  0  0  0  0  0  0  0  0  0  0  0
    2.0986   -2.6370   -0.0720 C   0  0  0  0  0  0  0  0  0  0  0  0
    4.5329   -2.0898    0.3488 C   0  0  0  0  0  0  0  0  0  0  0  0
   -0.1948    2.5851   -0.6982 C   0  0  0  0  0  0  0  0  0  0  0  0
   -5.8919   -0.5279    0.2201 C   0  0  0  0  0  0  0  0  0  0  0  0
    4.7437   -0.5866    0.1525 C   0  0  0  0  0  0  0  0  0  0  0  0
   -2.2075   -2.4979    1.3878 C   0  0  0  0  0  0  0  0  0  0  0  0
   -1.6680    2.7153   -2.7372 C   0  0  0  0  0  0  0  0  0  0  0  0
   -0.7480    1.3381    2.8153 C   0  0  0  0  0  0  0  0  0  0  0  0
    1.3043    2.4283    1.2750 C   0  0  0  0  0  0  0  0  0  0  0  0
    2.9059   -2.5008    2.2652 C   0  0  0  0  0  0  0  0  0  0  0  0
    6.1447   -0.2915   -0.3047 C   0  0  0  0  0  0  0  0  0  0  0  0
    0.5124    1.5433    3.3770 C   0  0  0  0  0  0  0  0  0  0  0  0
    1.5375    2.0880    2.6076 C   0  0  0  0  0  0  0  0  0  0  0  0
    6.5287    0.2453   -1.4783 C   0  0  0  0  0  0  0  0  0  0  0  0
    7.9517    0.5168   -1.8772 C   0  0  0  0  0  0  0  0  0  0  0  0
    5.5072    0.6116   -2.5214 C   0  0  0  0  0  0  0  0  0  0  0  0
   -4.8070   -2.0552   -2.6598 H   0  0  0  0  0  0  0  0  0  0  0  0
   -6.0676   -2.5031   -1.5369 H   0  0  0  0  0  0  0  0  0  0  0  0
   -4.1765   -4.0762   -1.4090 H   0  0  0  0  0  0  0  0  0  0  0  0
   -4.3920   -3.2726    0.1272 H   0  0  0  0  0  0  0  0  0  0  0  0
   -0.1672   -0.9949    0.2080 H   0  0  0  0  0  0  0  0  0  0  0  0
   -0.1570   -1.8164   -1.3368 H   0  0  0  0  0  0  0  0  0  0  0  0
   -4.1919    2.2764   -1.8425 H   0  0  0  0  0  0  0  0  0  0  0  0
   -4.6553    1.9129   -0.2332 H   0  0  0  0  0  0  0  0  0  0  0  0
    0.5315   -3.1231    1.3508 H   0  0  0  0  0  0  0  0  0  0  0  0
    0.4675   -3.9643   -0.1736 H   0  0  0  0  0  0  0  0  0  0  0  0
   -2.2973   -2.5720   -2.0641 H   0  0  0  0  0  0  0  0  0  0  0  0
   -3.5551   -0.0790   -2.3367 H   0  0  0  0  0  0  0  0  0  0  0  0
    2.3084   -2.5744   -1.1390 H   0  0  0  0  0  0  0  0  0  0  0  0
    5.2480   -2.4947    1.0764 H   0  0  0  0  0  0  0  0  0  0  0  0
    4.7448   -2.6101   -0.5954 H   0  0  0  0  0  0  0  0  0  0  0  0
   -5.6428   -1.2410    1.0126 H   0  0  0  0  0  0  0  0  0  0  0  0
   -5.8348    0.4710    0.6548 H   0  0  0  0  0  0  0  0  0  0  0  0
   -6.9340   -0.6927   -0.0733 H   0  0  0  0  0  0  0  0  0  0  0  0
    3.9834   -0.1788   -0.5196 H   0  0  0  0  0  0  0  0  0  0  0  0
    4.5927   -0.0708    1.1100 H   0  0  0  0  0  0  0  0  0  0  0  0
   -2.0403   -3.5185    1.7460 H   0  0  0  0  0  0  0  0  0  0  0  0
   -3.2527   -2.2246    1.5530 H   0  0  0  0  0  0  0  0  0  0  0  0
   -1.6240   -1.8186    2.0194 H   0  0  0  0  0  0  0  0  0  0  0  0
   -0.8376    2.2838   -3.3075 H   0  0  0  0  0  0  0  0  0  0  0  0
   -1.6399    3.8035   -2.8556 H   0  0  0  0  0  0  0  0  0  0  0  0
   -2.5815    2.3475   -3.2096 H   0  0  0  0  0  0  0  0  0  0  0  0
   -1.5308    0.9104    3.4361 H   0  0  0  0  0  0  0  0  0  0  0  0
    2.1213    2.8499    0.6954 H   0  0  0  0  0  0  0  0  0  0  0  0
    3.0769   -3.5236    2.6148 H   0  0  0  0  0  0  0  0  0  0  0  0
    3.6094   -1.8445    2.7905 H   0  0  0  0  0  0  0  0  0  0  0  0
    1.9117   -2.1710    2.5784 H   0  0  0  0  0  0  0  0  0  0  0  0
    6.9234   -0.5417    0.4146 H   0  0  0  0  0  0  0  0  0  0  0  0
    0.6944    1.2769    4.4140 H   0  0  0  0  0  0  0  0  0  0  0  0
    2.5193    2.2462    3.0444 H   0  0  0  0  0  0  0  0  0  0  0  0
    8.0872    1.5792   -2.1041 H   0  0  0  0  0  0  0  0  0  0  0  0
    8.6514    0.2539   -1.0771 H   0  0  0  0  0  0  0  0  0  0  0  0
    8.2203   -0.0689   -2.7622 H   0  0  0  0  0  0  0  0  0  0  0  0
    4.6116   -0.0142   -2.4949 H   0  0  0  0  0  0  0  0  0  0  0  0
    5.9270    0.4809   -3.5256 H   0  0  0  0  0  0  0  0  0  0  0  0
    5.2162    1.6613   -2.4139 H   0  0  0  0  0  0  0  0  0  0  0  0
  1 15  2  0  0  0  0
  2 20  2  0  0  0  0
  3  4  1  0  0  0  0
  3  8  1  0  0  0  0
  3 34  1  0  0  0  0
  3 35  1  0  0  0  0
  4 12  1  0  0  0  0
  4 36  1  0  0  0  0
  4 37  1  0  0  0  0
  5  7  1  0  0  0  0
  5 11  2  0  0  0  0
  5 15  1  0  0  0  0
  6  9  1  0  0  0  0
  6 10  1  0  0  0  0
  6 38  1  0  0  0  0
  6 39  1  0  0  0  0
  7 13  1  0  0  0  0
  7 40  1  0  0  0  0
  7 41  1  0  0  0  0
  8 13  2  0  0  0  0
  8 21  1  0  0  0  0
  9 12  2  0  0  0  0
  9 23  1  0  0  0  0
 10 18  1  0  0  0  0
 10 42  1  0  0  0  0
 10 43  1  0  0  0  0
 11 20  1  0  0  0  0
 11 24  1  0  0  0  0
 12 44  1  0  0  0  0
 13 45  1  0  0  0  0
 14 15  1  0  0  0  0
 14 16  1  0  0  0  0
 14 25  2  0  0  0  0
 16 20  1  0  0  0  0
 16 26  2  0  0  0  0
 17 18  2  0  0  0  0
 17 19  1  0  0  0  0
 17 27  1  0  0  0  0
 18 46  1  0  0  0  0
 19 22  1  0  0  0  0
 19 47  1  0  0  0  0
 19 48  1  0  0  0  0
 21 49  1  0  0  0  0
 21 50  1  0  0  0  0
 21 51  1  0  0  0  0
 22 28  1  0  0  0  0
 22 52  1  0  0  0  0
 22 53  1  0  0  0  0
 23 54  1  0  0  0  0
 23 55  1  0  0  0  0
 23 56  1  0  0  0  0
 24 57  1  0  0  0  0
 24 58  1  0  0  0  0
 24 59  1  0  0  0  0
 25 29  1  0  0  0  0
 25 60  1  0  0  0  0
 26 30  1  0  0  0  0
 26 61  1  0  0  0  0
 27 62  1  0  0  0  0
 27 63  1  0  0  0  0
 27 64  1  0  0  0  0
 28 31  2  0  0  0  0
 28 65  1  0  0  0  0
 29 30  2  0  0  0  0
 29 66  1  0  0  0  0
 30 67  1  0  0  0  0
 31 32  1  0  0  0  0
 31 33  1  0  0  0  0
 32 68  1  0  0  0  0
 32 69  1  0  0  0  0
 32 70  1  0  0  0  0
 33 71  1  0  0  0  0
 33 72  1  0  0  0  0
 33 73  1  0  0  0  0
M  END
> <PUBCHEM_COMPOUND_CID>
5282367

> <PUBCHEM_CONFORMER_RMSD>
1.4

> <PUBCHEM_CONFORMER_DIVERSEORDER>
25
251
176
129
175
221
41
45
109
17
100
140
196
12
180
226
213
171
195
24
186
149
177
244
114
178
278
81
127
273
141
167
64
238
190
69
103
214
169
10
269
27
217
35
106
36
48
248
133
78
173
122
28
89
144
61
54
84
220
184
93
229
200
128
172
110
222
1
65
107
255
82
232
219
117
202
18
174
134
67
80
247
55
235
31
182
209
260
224
216
44
199
237
170
21
72
197
163
37
152
242
148
262
6
212
230
203
215
88
245
40
126
58
179
98
168
83
49
143
270
240
118
211
162
32
71
125
271
50
157
206
62
90
150
51
223
253
263
155
60
33
165
124
85
192
153
73
86
210
156
274
76
138
218
231
250
95
111
30
275
225
57
26
145
113
281
236
115
154
257
194
227
39
181
183
252
42
146
13
276
151
280
207
2
96
137
266
105
243
20
94
130
228
189
193
119
132
147
102
53
46
22
258
256
136
91
204
246
188
52
191
279
249
142
277
208
198
75
112
160
66
43
63
123
131
205
59
15
108
241
116
164
265
101
254
161
56
74
139
34
70
158
201
185
3
121
23
29
233
79
47
68
4
38
97
120
11
272
187
5
234
259
87
14
159
92
261
135
8
9
16
19
7
264
239
267
99
166
268
104
77

> <PUBCHEM_MMFF94_PARTIAL_CHARGES>
41
1 -0.57
10 0.14
11 -0.12
12 -0.29
13 -0.29
14 0.09
15 0.47
16 0.09
17 -0.28
18 -0.29
19 0.14
2 -0.57
20 0.47
21 0.14
22 0.14
23 0.14
24 0.14
25 -0.15
26 -0.15
27 0.14
28 -0.29
29 -0.15
3 0.14
30 -0.15
31 -0.28
32 0.14
33 0.14
4 0.14
44 0.15
45 0.15
46 0.15
5 -0.12
6 0.14
60 0.15
61 0.15
65 0.15
66 0.15
67 0.15
7 0.28
8 -0.28
9 -0.28

> <PUBCHEM_EFFECTIVE_ROTOR_COUNT>
11

> <PUBCHEM_PHARMACOPHORE_FEATURES>
11
1 1 acceptor
1 2 acceptor
1 21 hydrophobe
1 23 hydrophobe
1 27 hydrophobe
3 31 32 33 hydrophobe
4 17 19 22 28 hydrophobe
4 3 4 8 12 hydrophobe
4 6 9 10 18 hydrophobe
6 14 16 25 26 29 30 rings
6 5 11 14 15 16 20 rings

> <PUBCHEM_HEAVY_ATOM_COUNT>
33

> <PUBCHEM_ATOM_DEF_STEREO_COUNT>
0

> <PUBCHEM_ATOM_UDEF_STEREO_COUNT>
0

> <PUBCHEM_BOND_DEF_STEREO_COUNT>
3

> <PUBCHEM_BOND_UDEF_STEREO_COUNT>
0

> <PUBCHEM_ISOTOPIC_ATOM_COUNT>
0

> <PUBCHEM_COMPONENT_COUNT>
1

> <PUBCHEM_CACTVS_TAUTO_COUNT>
5

> <PUBCHEM_CONFORMER_ID>
00509A3F00000019

> <PUBCHEM_MMFF94_ENERGY>
55.1627

> <PUBCHEM_FEATURE_SELFOVERLAP>
55.86

> <PUBCHEM_SHAPE_FINGERPRINT>
10670039 82 18410301320234580326
11513181 2 17411040043604348950
12156800 1 16738002304885920727
1361 2 18114465656207624228
13615921 28 17417513758116359073
14040221 10 17202507587983700563
14747281 78 15865174803718772133
14840074 17 18337119951296021841
14932702 115 18196917908118866804
17492 54 18336822000803515435
20775530 9 18269822255186067407
469060 322 17897473737782771890

> <PUBCHEM_SHAPE_MULTIPOLES>
667.39
13.58
4.57
2.86
20.43
1.09
-1.17
4.73
10.25
-1.91
-0.13
1.4
-1.98
-1.36

> <PUBCHEM_SHAPE_SELFOVERLAP>
1365.809

> <PUBCHEM_SHAPE_VOLUME>
384.8

> <PUBCHEM_COORDINATE_TYPE>
2
5
10

$$$$
