REMARK  11 active torsions:
REMARK  status: ('A' for Active; 'I' for Inactive)
REMARK    1  A    between atoms: C_3  and  C_4 
REMARK    2  A    between atoms: C_3  and  C_8 
REMARK    3  A    between atoms: C_4  and  C_12 
REMARK    4  A    between atoms: C_5  and  C_7 
REMARK    5  A    between atoms: C_6  and  C_9 
REMARK    6  A    between atoms: C_6  and  C_10 
REMARK    7  A    between atoms: C_7  and  C_13 
REMARK    8  A    between atoms: C_10  and  C_18 
REMARK    9  A    between atoms: C_17  and  C_19 
REMARK   10  A    between atoms: C_19  and  C_22 
REMARK   11  A    between atoms: C_22  and  C_28 
ROOT
HETATM    1  C   UNL     1      -4.988  -0.733  -0.965  1.00  0.00    -0.087 C 
HETATM    2  C   UNL     1      -4.153   0.198  -1.468  1.00  0.00    -0.020 C 
HETATM    3  C   UNL     1      -5.892  -0.528   0.220  1.00  0.00     0.043 C 
ENDROOT
BRANCH   1   4
HETATM    4  C   UNL     1      -5.042  -2.116  -1.588  1.00  0.00     0.037 C 
BRANCH   4   5
HETATM    5  C   UNL     1      -4.086  -3.104  -0.909  1.00  0.00     0.031 C 
BRANCH   5   6
HETATM    6  C   UNL     1      -2.657  -2.651  -1.039  1.00  0.00    -0.024 C 
HETATM    7  C   UNL     1      -1.783  -2.369  -0.053  1.00  0.00    -0.087 C 
HETATM    8  C   UNL     1      -2.208  -2.498   1.388  1.00  0.00     0.043 C 
BRANCH   7   9
HETATM    9  C   UNL     1      -0.338  -1.970  -0.264  1.00  0.00     0.037 C 
BRANCH   9  10
HETATM   10  C   UNL     1       0.677  -2.985   0.277  1.00  0.00     0.031 C 
BRANCH  10  11
HETATM   11  C   UNL     1       2.099  -2.637  -0.072  1.00  0.00    -0.024 C 
HETATM   12  C   UNL     1       3.120  -2.414   0.777  1.00  0.00    -0.087 C 
HETATM   13  C   UNL     1       2.906  -2.501   2.265  1.00  0.00     0.043 C 
BRANCH  12  14
HETATM   14  C   UNL     1       4.533  -2.090   0.349  1.00  0.00     0.037 C 
BRANCH  14  15
HETATM   15  C   UNL     1       4.744  -0.587   0.153  1.00  0.00     0.031 C 
BRANCH  15  16
HETATM   16  C   UNL     1       6.145  -0.291  -0.305  1.00  0.00    -0.024 C 
HETATM   17  C   UNL     1       6.529   0.245  -1.478  1.00  0.00    -0.091 C 
HETATM   18  C   UNL     1       7.952   0.517  -1.877  1.00  0.00     0.042 C 
HETATM   19  C   UNL     1       5.507   0.612  -2.521  1.00  0.00     0.042 C 
ENDBRANCH  15  16
ENDBRANCH  14  15
ENDBRANCH  12  14
ENDBRANCH  10  11
ENDBRANCH   9  10
ENDBRANCH   7   9
ENDBRANCH   5   6
ENDBRANCH   4   5
ENDBRANCH   1   4
BRANCH   2  20
HETATM   20  C   UNL     1      -3.944   1.611  -1.008  1.00  0.00     0.070 C 
BRANCH  20  21
HETATM   21  C   UNL     1      -2.547   1.837  -0.533  1.00  0.00     0.006 A 
HETATM   22  C   UNL     1      -1.552   2.349  -1.281  1.00  0.00    -0.001 A 
HETATM   23  C   UNL     1      -0.195   2.585  -0.698  1.00  0.00     0.189 A 
HETATM   24  C   UNL     1      -1.668   2.715  -2.737  1.00  0.00     0.053 C 
HETATM   25  O   UNL     1       0.711   3.074  -1.366  1.00  0.00    -0.287 OA
HETATM   26  C   UNL     1       0.039   2.223   0.709  1.00  0.00     0.029 A 
HETATM   27  C   UNL     1      -0.985   1.679   1.477  1.00  0.00     0.029 A 
HETATM   28  C   UNL     1       1.304   2.428   1.275  1.00  0.00     0.016 A 
HETATM   29  C   UNL     1      -2.318   1.459   0.896  1.00  0.00     0.190 A 
HETATM   30  C   UNL     1      -0.748   1.338   2.815  1.00  0.00     0.016 A 
HETATM   31  O   UNL     1      -3.213   0.969   1.578  1.00  0.00    -0.287 OA
HETATM   32  C   UNL     1       0.512   1.543   3.377  1.00  0.00     0.001 A 
HETATM   33  C   UNL     1       1.538   2.088   2.608  1.00  0.00     0.001 A 
ENDBRANCH  20  21
ENDBRANCH   2  20
TORSDOF 11
