REMARK  8 active torsions:
REMARK  status: ('A' for Active; 'I' for Inactive)
REMARK    1  A    between atoms: O_1  and  C_20 
REMARK    2  A    between atoms: O_2  and  C_26 
REMARK    3  A    between atoms: C_4  and  C_9 
REMARK    4  A    between atoms: C_9  and  C_14 
REMARK    5  A    between atoms: C_14  and  C_17 
REMARK    6  A    between atoms: C_16  and  C_19 
REMARK    7  A    between atoms: C_17  and  C_18 
REMARK    8  A    between atoms: C_18  and  C_20 
ROOT
HETATM    1  C   UNL     1       0.869   1.492   0.251  1.00  0.00    -0.033 C 
HETATM    2  C   UNL     1       2.173   0.685   0.476  1.00  0.00    -0.002 C 
HETATM    3  C   UNL     1      -0.082   0.335  -0.143  1.00  0.00     0.023 C 
HETATM    4  C   UNL     1       1.708  -0.583   1.222  1.00  0.00     0.006 C 
HETATM    5  C   UNL     1       0.213  -0.749   0.899  1.00  0.00     0.010 C 
HETATM    6  C   UNL     1       0.957   2.516  -0.905  1.00  0.00     0.010 C 
HETATM    7  C   UNL     1      -1.489   0.818  -0.379  1.00  0.00    -0.075 C 
HETATM    8  C   UNL     1       0.429   2.225   1.545  1.00  0.00     0.016 C 
HETATM    9  C   UNL     1      -0.278   2.512  -1.828  1.00  0.00     0.005 C 
HETATM   10  C   UNL     1      -1.589   2.132  -1.127  1.00  0.00     0.034 C 
HETATM   11  C   UNL     1      -2.590   0.162   0.015  1.00  0.00     0.004 C 
ENDROOT
BRANCH  11  12
HETATM   12  C   UNL     1      -3.927   0.640  -0.234  1.00  0.00     0.008 C 
HETATM   13  C   UNL     1      -5.030  -0.016   0.161  1.00  0.00    -0.050 C 
HETATM   14  C   UNL     1      -6.418   0.494  -0.156  1.00  0.00     0.070 C 
HETATM   15  C   UNL     1      -4.981  -1.284   0.883  1.00  0.00    -0.061 C 
HETATM   16  C   UNL     1      -7.325  -0.591  -0.748  1.00  0.00     0.122 C 
HETATM   17  C   UNL     1      -7.303  -1.867   0.097  1.00  0.00     0.036 C 
HETATM   18  C   UNL     1      -5.875  -2.368   0.332  1.00  0.00     0.041 C 
HETATM   19  C   UNL     1      -4.226  -1.473   1.977  1.00  0.00     0.019 C 
BRANCH  16  20
HETATM   20  O   UNL     1      -6.906  -0.902  -2.075  1.00  0.00    -0.395 OA
HETATM   21  H   UNL     1      -5.962  -1.129  -2.063  1.00  0.00     0.210 HD
ENDBRANCH  16  20
ENDBRANCH  11  12
BRANCH   2  22
HETATM   22  C   UNL     1       3.305   1.410   1.190  1.00  0.00    -0.014 C 
HETATM   23  C   UNL     1       3.672   2.701   0.454  1.00  0.00     0.010 C 
BRANCH  22  24
HETATM   24  C   UNL     1       4.540   0.514   1.419  1.00  0.00     0.005 C 
BRANCH  24  25
HETATM   25  C   UNL     1       5.152  -0.095   0.151  1.00  0.00     0.003 C 
BRANCH  25  26
HETATM   26  C   UNL     1       6.337  -1.003   0.498  1.00  0.00     0.037 C 
BRANCH  26  27
HETATM   27  C   UNL     1       6.990  -1.729  -0.696  1.00  0.00     0.051 C 
HETATM   28  C   UNL     1       7.610  -0.758  -1.704  1.00  0.00     0.045 C 
HETATM   29  C   UNL     1       6.018  -2.675  -1.401  1.00  0.00     0.045 C 
BRANCH  27  30
HETATM   30  O   UNL     1       8.047  -2.545  -0.173  1.00  0.00    -0.391 OA
HETATM   31  H   UNL     1       8.478  -2.998  -0.918  1.00  0.00     0.210 HD
ENDBRANCH  27  30
ENDBRANCH  26  27
ENDBRANCH  25  26
ENDBRANCH  24  25
ENDBRANCH  22  24
ENDBRANCH   2  22
TORSDOF 8
