REMARK  5 active torsions:
REMARK  status: ('A' for Active; 'I' for Inactive)
REMARK    1  A    between atoms: O_1  and  C_13 
REMARK    2  A    between atoms: N_5  and  C_10 
REMARK    3  A    between atoms: N_6  and  C_20 
REMARK    4  A    between atoms: C_7  and  C_8 
REMARK    5  A    between atoms: C_8  and  C_13 
ROOT
HETATM    1  N   UNL     1       1.072   1.297   0.241  1.00  0.00    -0.384 N 
HETATM    2  C   UNL     1       1.976   0.275   0.742  1.00  0.00     0.094 C 
HETATM    3  C   UNL     1       1.555  -1.091   0.196  1.00  0.00     0.066 C 
HETATM    4  C   UNL     1       0.114  -1.419   0.626  1.00  0.00     0.259 C 
HETATM    5  C   UNL     1      -0.820  -0.258   0.322  1.00  0.00     0.004 A 
HETATM    6  C   UNL     1      -0.294   1.044   0.160  1.00  0.00     0.037 A 
HETATM    7  C   UNL     1      -2.213  -0.443   0.269  1.00  0.00     0.047 A 
HETATM    8  C   UNL     1      -1.170   2.103  -0.130  1.00  0.00     0.032 A 
HETATM    9  C   UNL     1      -3.068   0.626  -0.002  1.00  0.00     0.103 A 
HETATM   10  C   UNL     1      -2.546   1.897  -0.210  1.00  0.00     0.038 A 
HETATM   11  H   UNL     1       1.355   2.269   0.234  1.00  0.00     0.160 HD
ENDROOT
BRANCH   2  12
HETATM   12  C   UNL     1       3.402   0.614   0.319  1.00  0.00    -0.006 C 
HETATM   13  C   UNL     1       4.369  -0.441   0.894  1.00  0.00     0.019 C 
HETATM   14  C   UNL     1       3.792   1.998   0.874  1.00  0.00     0.019 C 
BRANCH  12  15
HETATM   15  C   UNL     1       3.522   0.651  -1.222  1.00  0.00     0.175 C 
BRANCH  15  16
HETATM   16  O   UNL     1       4.851   0.963  -1.618  1.00  0.00    -0.400 OA
HETATM   17  H   UNL     1       4.864   0.979  -2.590  1.00  0.00     0.209 HD
ENDBRANCH  15  16
ENDBRANCH  12  15
ENDBRANCH   2  12
BRANCH   4  18
HETATM   18  N   UNL     1      -0.269  -2.671  -0.037  1.00  0.00     0.089 N 
HETATM   19  C   UNL     1      -0.331  -2.480  -1.484  1.00  0.00     0.310 C 
HETATM   20  C   UNL     1       0.673  -3.733   0.303  1.00  0.00     0.310 C 
ENDBRANCH   4  18
BRANCH   9  21
HETATM   21  N   UNL     1      -4.471   0.416  -0.063  1.00  0.00    -0.116 N 
HETATM   22  O   UNL     1      -5.222   1.391  -0.307  1.00  0.00    -0.532 OA
HETATM   23  O   UNL     1      -4.921  -0.740   0.128  1.00  0.00    -0.532 OA
ENDBRANCH   9  21
TORSDOF 5
