57398987
  -OEChem-05062210143D

 44 45  0     1  0  0  0  0  0999 V2000
    4.8512    0.9627   -1.6182 O   0  0  0  0  0  0  0  0  0  0  0  0
   -5.2220    1.3907   -0.3073 O   0  5  0  0  0  0  0  0  0  0  0  0
   -4.9214   -0.7399    0.1281 O   0  0  0  0  0  0  0  0  0  0  0  0
    1.0720    1.2969    0.2409 N   0  0  0  0  0  0  0  0  0  0  0  0
   -0.2694   -2.6705   -0.0367 N   0  0  0  0  0  0  0  0  0  0  0  0
   -4.4710    0.4156   -0.0632 N   0  3  0  0  0  0  0  0  0  0  0  0
    1.9759    0.2754    0.7416 C   0  0  2  0  0  0  0  0  0  0  0  0
    3.4019    0.6143    0.3194 C   0  0  0  0  0  0  0  0  0  0  0  0
    1.5549   -1.0907    0.1956 C   0  0  0  0  0  0  0  0  0  0  0  0
    0.1144   -1.4193    0.6256 C   0  0  1  0  0  0  0  0  0  0  0  0
   -0.8204   -0.2575    0.3223 C   0  0  0  0  0  0  0  0  0  0  0  0
   -0.2939    1.0437    0.1599 C   0  0  0  0  0  0  0  0  0  0  0  0
    3.5218    0.6511   -1.2217 C   0  0  0  0  0  0  0  0  0  0  0  0
    4.3689   -0.4409    0.8941 C   0  0  0  0  0  0  0  0  0  0  0  0
    3.7917    1.9983    0.8739 C   0  0  0  0  0  0  0  0  0  0  0  0
   -2.2135   -0.4426    0.2687 C   0  0  0  0  0  0  0  0  0  0  0  0
   -1.1696    2.1030   -0.1302 C   0  0  0  0  0  0  0  0  0  0  0  0
   -0.3305   -2.4796   -1.4839 C   0  0  0  0  0  0  0  0  0  0  0  0
    0.6733   -3.7335    0.3029 C   0  0  0  0  0  0  0  0  0  0  0  0
   -3.0681    0.6261   -0.0017 C   0  0  0  0  0  0  0  0  0  0  0  0
   -2.5459    1.8967   -0.2102 C   0  0  0  0  0  0  0  0  0  0  0  0
    1.9055    0.2596    1.8381 H   0  0  0  0  0  0  0  0  0  0  0  0
    2.2406   -1.8452    0.5865 H   0  0  0  0  0  0  0  0  0  0  0  0
    1.6380   -1.0749   -0.8905 H   0  0  0  0  0  0  0  0  0  0  0  0
    0.0846   -1.5597    1.7151 H   0  0  0  0  0  0  0  0  0  0  0  0
    1.3549    2.2688    0.2335 H   0  0  0  0  0  0  0  0  0  0  0  0
    2.8594    1.4021   -1.6648 H   0  0  0  0  0  0  0  0  0  0  0  0
    3.3017   -0.3158   -1.6797 H   0  0  0  0  0  0  0  0  0  0  0  0
    4.1867   -0.6094    1.9614 H   0  0  0  0  0  0  0  0  0  0  0  0
    4.2983   -1.4018    0.3746 H   0  0  0  0  0  0  0  0  0  0  0  0
    5.4113   -0.1157    0.7938 H   0  0  0  0  0  0  0  0  0  0  0  0
    3.5650    2.0739    1.9436 H   0  0  0  0  0  0  0  0  0  0  0  0
    3.2879    2.8225    0.3592 H   0  0  0  0  0  0  0  0  0  0  0  0
    4.8674    2.1798    0.7622 H   0  0  0  0  0  0  0  0  0  0  0  0
   -2.6126   -1.4393    0.4448 H   0  0  0  0  0  0  0  0  0  0  0  0
   -0.7801    3.1072   -0.2848 H   0  0  0  0  0  0  0  0  0  0  0  0
   -0.8249   -3.3578   -1.9193 H   0  0  0  0  0  0  0  0  0  0  0  0
    0.6439   -2.4194   -1.9798 H   0  0  0  0  0  0  0  0  0  0  0  0
   -0.9372   -1.6303   -1.8101 H   0  0  0  0  0  0  0  0  0  0  0  0
    0.2341   -4.6975    0.0184 H   0  0  0  0  0  0  0  0  0  0  0  0
    0.8460   -3.7905    1.3839 H   0  0  0  0  0  0  0  0  0  0  0  0
    1.6374   -3.6722   -0.2138 H   0  0  0  0  0  0  0  0  0  0  0  0
   -3.1781    2.7534   -0.4289 H   0  0  0  0  0  0  0  0  0  0  0  0
    4.8645    0.9790   -2.5904 H   0  0  0  0  0  0  0  0  0  0  0  0
  1 13  1  0  0  0  0
  1 44  1  0  0  0  0
  2  6  1  0  0  0  0
  3  6  2  0  0  0  0
  4  7  1  0  0  0  0
  4 12  1  0  0  0  0
  4 26  1  0  0  0  0
  5 10  1  0  0  0  0
  5 18  1  0  0  0  0
  5 19  1  0  0  0  0
  6 20  1  0  0  0  0
  7  8  1  0  0  0  0
  7  9  1  0  0  0  0
  7 22  1  0  0  0  0
  8 13  1  0  0  0  0
  8 14  1  0  0  0  0
  8 15  1  0  0  0  0
  9 10  1  0  0  0  0
  9 23  1  0  0  0  0
  9 24  1  0  0  0  0
 10 11  1  0  0  0  0
 10 25  1  0  0  0  0
 11 12  2  0  0  0  0
 11 16  1  0  0  0  0
 12 17  1  0  0  0  0
 13 27  1  0  0  0  0
 13 28  1  0  0  0  0
 14 29  1  0  0  0  0
 14 30  1  0  0  0  0
 14 31  1  0  0  0  0
 15 32  1  0  0  0  0
 15 33  1  0  0  0  0
 15 34  1  0  0  0  0
 16 20  2  0  0  0  0
 16 35  1  0  0  0  0
 17 21  2  0  0  0  0
 17 36  1  0  0  0  0
 18 37  1  0  0  0  0
 18 38  1  0  0  0  0
 18 39  1  0  0  0  0
 19 40  1  0  0  0  0
 19 41  1  0  0  0  0
 19 42  1  0  0  0  0
 20 21  1  0  0  0  0
 21 43  1  0  0  0  0
M  CHG  2   2  -1   6   1
M  END
> <PUBCHEM_COMPOUND_CID>
57398987

> <PUBCHEM_CONFORMER_RMSD>
0.8

> <PUBCHEM_CONFORMER_DIVERSEORDER>
1
2
3

> <PUBCHEM_MMFF94_PARTIAL_CHARGES>
22
1 -0.68
10 0.41
11 -0.14
12 0.1
13 0.28
16 -0.15
17 -0.15
18 0.27
19 0.27
2 -0.52
20 0.13
21 -0.15
26 0.4
3 -0.52
35 0.15
36 0.15
4 -0.87
43 0.15
44 0.4
5 -0.81
6 0.91
7 0.37

> <PUBCHEM_EFFECTIVE_ROTOR_COUNT>
4.8

> <PUBCHEM_PHARMACOPHORE_FEATURES>
11
1 1 acceptor
1 1 donor
1 2 acceptor
1 2 anion
1 3 acceptor
1 4 cation
1 4 donor
1 5 cation
3 8 14 15 hydrophobe
6 11 12 16 17 20 21 rings
6 4 7 9 10 11 12 rings

> <PUBCHEM_HEAVY_ATOM_COUNT>
21

> <PUBCHEM_ATOM_DEF_STEREO_COUNT>
2

> <PUBCHEM_ATOM_UDEF_STEREO_COUNT>
0

> <PUBCHEM_BOND_DEF_STEREO_COUNT>
0

> <PUBCHEM_BOND_UDEF_STEREO_COUNT>
0

> <PUBCHEM_ISOTOPIC_ATOM_COUNT>
0

> <PUBCHEM_COMPONENT_COUNT>
1

> <PUBCHEM_CACTVS_TAUTO_COUNT>
1

> <PUBCHEM_CONFORMER_ID>
036BD6CB00000001

> <PUBCHEM_MMFF94_ENERGY>
86.7233

> <PUBCHEM_FEATURE_SELFOVERLAP>
55.924

> <PUBCHEM_SHAPE_FINGERPRINT>
10090160 65 18187358814362285083
10411042 1 17474948727789279195
10498660 4 18409446985902227629
10759866 29 17967818258239358834
10906281 52 18188789270737736337
10922049 32 18342176674018066031
10967382 1 18410851032048573835
11488393 25 17986410900712454271
11963148 33 18261389005576510163
12173636 292 18409724088697020796
12236239 1 17748825228863834360
12532896 13 18340761654361874674
12553582 1 17615974743631425010
12592029 89 18410855417210540603
12715332 25 18130779058293196010
12839892 36 18265595641872759523
12969540 114 18336813282178361781
13140716 1 18195236939249011968
13544592 145 18130515214378671212
14790565 3 18410860996684813753
15042514 8 18336824320065328043
15196674 1 18409162221106922073
15309172 13 18412547612944994241
16752209 62 18267017443688668066
16945 1 18337673134847064592
18186145 218 18131636677373482640
19591789 44 18411978052915805690
19868273 293 18336834194732633210
20028762 73 17985549098961827695
20602899 9 17346329214580813118
20645476 183 17968670435548569182
20645477 70 18199461061787458031
20871999 31 18196095662531551590
20905425 154 17979917112134212262
21501502 16 18052820243762656385
21521721 280 18271528718891757657
21524375 3 18409446951642560314
22182313 1 18269016299967165591
22620623 9 17844251950149069166
229495 10 16516781754608861922
23227448 37 18123469642441445756
23366157 5 17826518755780150243
23402539 116 18270950327897709132
23557571 272 17984142845058710056
23559900 14 18049993399167294707
2748010 2 18337959986938232890
298252 57 18409166623432719506
3060560 45 18412539894989035332
3071541 37 18336829680215810851
3323516 105 17917158199527643966
34934 24 18263359356076857592
350125 39 18336262332690352856
3759504 43 18114187492070111826
4072396 5 18262784186519167921
43471831 8 18337669715726257275
458136 41 18266758890751410658
474229 33 18409725179650193483
4990 188 17846501426126776052
5104073 3 18335700490949530945
58051976 378 18341607062786549069
59755656 215 18265050228222886375
6138700 20 18195811761347308878
633830 44 18060135435997883877
69090 78 18342169003301219680
7364860 26 18052251800145299186
81228 2 17836626884033419562
81539 233 18334572395945231399

> <PUBCHEM_SHAPE_MULTIPOLES>
399.62
8.66
3.03
1.04
2.82
2.82
-0.35
-4.64
-0.74
-0.05
-0.15
-1.07
0.1
-0.09

> <PUBCHEM_SHAPE_SELFOVERLAP>
837.531

> <PUBCHEM_SHAPE_VOLUME>
226.9

> <PUBCHEM_COORDINATE_TYPE>
2
5
10

$$$$
