REMARK  2 active torsions:
REMARK  status: ('A' for Active; 'I' for Inactive)
REMARK    1  A    between atoms: O_1  and  C_7 
REMARK    2  A    between atoms: O_2  and  C_20 
ROOT
HETATM    1  C   UNL     1       2.664   0.584   0.148  1.00  0.00    -0.014 C 
HETATM    2  C   UNL     1       1.984  -0.695  -0.379  1.00  0.00     0.001 C 
HETATM    3  C   UNL     1       0.515  -0.780   0.035  1.00  0.00    -0.001 C 
HETATM    4  C   UNL     1      -0.246   0.436  -0.575  1.00  0.00     0.023 C 
HETATM    5  C   UNL     1       4.095   0.335  -0.367  1.00  0.00     0.126 C 
HETATM    6  C   UNL     1       1.955   1.793  -0.475  1.00  0.00     0.013 C 
HETATM    7  C   UNL     1       2.944  -1.806   0.038  1.00  0.00     0.008 C 
HETATM    8  C   UNL     1       0.440   1.776  -0.195  1.00  0.00     0.010 C 
HETATM    9  C   UNL     1       4.337  -1.161  -0.088  1.00  0.00     0.033 C 
HETATM   10  C   UNL     1      -0.155  -2.073  -0.435  1.00  0.00     0.010 C 
HETATM   11  C   UNL     1       2.665   0.731   1.691  1.00  0.00     0.018 C 
HETATM   12  C   UNL     1      -1.740   0.364  -0.267  1.00  0.00    -0.047 A 
HETATM   13  C   UNL     1      -1.569  -2.159   0.131  1.00  0.00     0.039 C 
HETATM   14  C   UNL     1      -2.353  -0.874   0.022  1.00  0.00    -0.049 A 
HETATM   15  C   UNL     1      -2.555   1.507  -0.351  1.00  0.00     0.011 A 
HETATM   16  C   UNL     1      -3.737  -0.930   0.269  1.00  0.00     0.044 A 
HETATM   17  C   UNL     1      -3.929   1.436  -0.112  1.00  0.00     0.037 A 
HETATM   18  C   UNL     1      -4.520   0.219   0.203  1.00  0.00     0.066 A 
ENDROOT
BRANCH   5  19
HETATM   19  O   UNL     1       5.061   1.150   0.267  1.00  0.00    -0.395 OA
HETATM   20  H   UNL     1       5.936   0.868  -0.052  1.00  0.00     0.210 HD
ENDBRANCH   5  19
BRANCH  18  21
HETATM   21  O   UNL     1      -5.857   0.148   0.439  1.00  0.00    -0.361 OA
HETATM   22  H   UNL     1      -6.241   1.038   0.349  1.00  0.00     0.217 HD
ENDBRANCH  18  21
TORSDOF 2
