REMARK  1 active torsions:
REMARK  status: ('A' for Active; 'I' for Inactive)
REMARK    1  A    between atoms: O_2  and  C_20 
ROOT
HETATM    1  O   UNL     1      -4.940  -1.174  -0.262  1.00  0.00    -0.297 OA
HETATM    2  C   UNL     1      -2.000   0.676  -0.301  1.00  0.00     0.006 C 
HETATM    3  C   UNL     1      -2.643  -0.595   0.293  1.00  0.00     0.021 C 
HETATM    4  C   UNL     1      -0.525   0.779   0.082  1.00  0.00    -0.000 C 
HETATM    5  C   UNL     1       0.226  -0.442  -0.534  1.00  0.00     0.024 C 
HETATM    6  C   UNL     1      -1.975  -1.803  -0.354  1.00  0.00     0.018 C 
HETATM    7  C   UNL     1      -2.968   1.793   0.071  1.00  0.00     0.013 C 
HETATM    8  C   UNL     1      -0.450  -1.783  -0.136  1.00  0.00     0.011 C 
HETATM    9  C   UNL     1       0.130   2.068  -0.417  1.00  0.00     0.010 C 
HETATM   10  C   UNL     1      -4.082  -0.316  -0.104  1.00  0.00     0.135 C 
HETATM   11  C   UNL     1      -4.337   1.175  -0.249  1.00  0.00     0.079 C 
HETATM   12  C   UNL     1      -2.626  -0.708   1.829  1.00  0.00     0.024 C 
HETATM   13  C   UNL     1       1.725  -0.365  -0.260  1.00  0.00    -0.047 A 
HETATM   14  C   UNL     1       1.558   2.162   0.112  1.00  0.00     0.039 C 
HETATM   15  C   UNL     1       2.343   0.878   0.000  1.00  0.00    -0.049 A 
HETATM   16  C   UNL     1       2.541  -1.508  -0.346  1.00  0.00     0.011 A 
HETATM   17  C   UNL     1       3.731   0.939   0.215  1.00  0.00     0.044 A 
HETATM   18  C   UNL     1       3.920  -1.432  -0.138  1.00  0.00     0.037 A 
HETATM   19  C   UNL     1       4.515  -0.210   0.147  1.00  0.00     0.066 A 
ENDROOT
BRANCH  19  20
HETATM   20  O   UNL     1       5.857  -0.135   0.353  1.00  0.00    -0.361 OA
HETATM   21  H   UNL     1       6.097   0.790   0.537  1.00  0.00     0.217 HD
ENDBRANCH  19  20
TORSDOF 1
