REMARK  1 active torsions:
REMARK  status: ('A' for Active; 'I' for Inactive)
REMARK    1  A    between atoms: O_1  and  C_8 
ROOT
HETATM    1  O   UNL     1      -5.518  -0.841   1.324  1.00  0.00    -0.293 OA
HETATM    2  C   UNL     1       1.436   0.769   0.247  1.00  0.00     0.002 C 
HETATM    3  C   UNL     1       2.240  -0.234  -0.611  1.00  0.00     0.003 C 
HETATM    4  C   UNL     1       0.047   1.061  -0.326  1.00  0.00    -0.005 C 
HETATM    5  C   UNL     1      -0.759  -0.281  -0.403  1.00  0.00    -0.002 C 
HETATM    6  C   UNL     1       1.464  -1.564  -0.648  1.00  0.00     0.014 C 
HETATM    7  C   UNL     1       3.602  -0.227   0.148  1.00  0.00     0.128 C 
HETATM    8  C   UNL     1       2.407   1.931   0.441  1.00  0.00     0.010 C 
HETATM    9  C   UNL     1       0.023  -1.380  -1.159  1.00  0.00     0.006 C 
HETATM   10  C   UNL     1      -2.161   0.005  -1.005  1.00  0.00     0.019 C 
HETATM   11  C   UNL     1       3.801   1.273   0.490  1.00  0.00     0.052 C 
HETATM   12  C   UNL     1      -0.710   2.119   0.500  1.00  0.00     0.010 C 
HETATM   13  C   UNL     1       2.465   0.239  -2.078  1.00  0.00     0.020 C 
HETATM   14  C   UNL     1      -2.134   2.340  -0.018  1.00  0.00     0.035 C 
HETATM   15  C   UNL     1      -2.845   1.016  -0.102  1.00  0.00    -0.072 C 
HETATM   16  C   UNL     1      -3.059  -1.218  -1.251  1.00  0.00     0.017 C 
HETATM   17  C   UNL     1       3.590  -1.032   1.386  1.00  0.00    -0.078 C 
HETATM   18  C   UNL     1      -3.710  -1.729   0.022  1.00  0.00     0.084 C 
HETATM   19  C   UNL     1      -3.932   0.754   0.639  1.00  0.00     0.053 C 
HETATM   20  C   UNL     1      -4.489  -0.620   0.688  1.00  0.00     0.149 C 
HETATM   21  C   UNL     1       3.580  -1.687   2.392  1.00  0.00     0.015 C 
ENDROOT
BRANCH   7  22
HETATM   22  O   UNL     1       4.661  -0.693  -0.676  1.00  0.00    -0.377 OA
HETATM   23  H   UNL     1       4.448  -1.600  -0.955  1.00  0.00     0.211 HD
ENDBRANCH   7  22
TORSDOF 1
