REMARK  3 active torsions:
REMARK  status: ('A' for Active; 'I' for Inactive)
REMARK    1  A    between atoms: O_1  and  C_9 
REMARK    2  A    between atoms: O_1  and  C_27 
REMARK    3  A    between atoms: C_9  and  C_21 
ROOT
HETATM    1  O   UNL     1       6.425   0.528   1.651  1.00  0.00    -0.293 OA
HETATM    2  C   UNL     1      -1.692   0.383  -0.687  1.00  0.00    -0.001 C 
HETATM    3  C   UNL     1      -0.858  -0.826  -0.202  1.00  0.00     0.002 C 
HETATM    4  C   UNL     1       0.611  -0.759  -0.640  1.00  0.00    -0.004 C 
HETATM    5  C   UNL     1       1.253   0.537  -0.066  1.00  0.00     0.002 C 
HETATM    6  C   UNL     1      -3.089  -0.044  -0.169  1.00  0.00     0.138 C 
HETATM    7  C   UNL     1       2.783   0.675  -0.427  1.00  0.00    -0.016 C 
HETATM    8  C   UNL     1      -1.083   1.645  -0.056  1.00  0.00     0.013 C 
HETATM    9  C   UNL     1       0.408   1.796  -0.406  1.00  0.00     0.007 C 
HETATM   10  C   UNL     1      -1.695  -2.029  -0.627  1.00  0.00     0.009 C 
HETATM   11  C   UNL     1       1.393  -1.989  -0.162  1.00  0.00     0.014 C 
HETATM   12  C   UNL     1      -3.154  -1.560  -0.458  1.00  0.00     0.048 C 
HETATM   13  C   UNL     1       2.865  -1.920  -0.591  1.00  0.00     0.012 C 
HETATM   14  C   UNL     1       3.521  -0.635  -0.077  1.00  0.00    -0.064 C 
HETATM   15  C   UNL     1      -1.716   0.531  -2.234  1.00  0.00     0.019 C 
HETATM   16  C   UNL     1       3.360   1.865   0.399  1.00  0.00     0.022 C 
HETATM   17  C   UNL     1       2.999   0.969  -1.929  1.00  0.00     0.020 C 
HETATM   18  C   UNL     1       4.877   1.895   0.445  1.00  0.00     0.084 C 
HETATM   19  C   UNL     1       4.682  -0.652   0.605  1.00  0.00     0.054 C 
HETATM   20  C   UNL     1       3.554  -3.238  -0.207  1.00  0.00     0.015 C 
HETATM   21  C   UNL     1       5.396   0.591   0.981  1.00  0.00     0.149 C 
ENDROOT
BRANCH   6  22
HETATM   22  O   UNL     1      -3.204   0.175   1.234  1.00  0.00    -0.302 OA
BRANCH  22  23
HETATM   23  C   UNL     1      -4.369  -0.252   1.807  1.00  0.00     0.256 C 
HETATM   24  O   UNL     1      -5.300  -0.796   1.230  1.00  0.00    -0.266 OA
HETATM   25  C   UNL     1      -4.349   0.042   3.277  1.00  0.00     0.126 C 
ENDBRANCH  22  23
ENDBRANCH   6  22
BRANCH   6  26
HETATM   26  C   UNL     1      -4.238   0.716  -0.760  1.00  0.00     0.158 C 
HETATM   27  O   UNL     1      -5.122   0.152  -1.403  1.00  0.00    -0.295 OA
HETATM   28  C   UNL     1      -4.257   2.202  -0.528  1.00  0.00     0.094 C 
ENDBRANCH   6  26
TORSDOF 3
