REMARK  0 active torsions:
REMARK  status: ('A' for Active; 'I' for Inactive)
ROOT
HETATM    1  O   UNL     1       4.264   0.569   0.717  1.00  0.00    -0.309 OA
HETATM    2  O   UNL     1       6.472   1.175   0.585  1.00  0.00    -0.265 OA
HETATM    3  O   UNL     1      -6.784   0.593  -0.292  1.00  0.00    -0.293 OA
HETATM    4  C   UNL     1       1.001  -0.745  -0.356  1.00  0.00     0.006 C 
HETATM    5  C   UNL     1       1.872  -1.964  -0.232  1.00  0.00    -0.002 A 
HETATM    6  C   UNL     1       3.286  -1.463  -0.184  1.00  0.00     0.027 A 
HETATM    7  C   UNL     1       1.807   0.452   0.234  1.00  0.00    -0.007 C 
HETATM    8  C   UNL     1      -0.440  -0.796   0.147  1.00  0.00     0.001 C 
HETATM    9  C   UNL     1       3.271   0.074  -0.195  1.00  0.00     0.083 C 
HETATM   10  C   UNL     1       2.748  -2.328   0.930  1.00  0.00     0.013 A 
HETATM   11  C   UNL     1      -1.201  -1.975  -0.406  1.00  0.00    -0.001 A 
HETATM   12  C   UNL     1      -1.167   0.523  -0.288  1.00  0.00     0.003 C 
HETATM   13  C   UNL     1      -2.693  -1.889  -0.587  1.00  0.00     0.020 A 
HETATM   14  C   UNL     1       1.153   1.702  -0.393  1.00  0.00     0.013 C 
HETATM   15  C   UNL     1      -2.122  -2.765   0.490  1.00  0.00     0.015 A 
HETATM   16  C   UNL     1      -2.647   0.571   0.259  1.00  0.00    -0.016 C 
HETATM   17  C   UNL     1      -0.337   1.808  -0.004  1.00  0.00     0.007 C 
HETATM   18  C   UNL     1       3.728   0.620  -1.543  1.00  0.00     0.050 C 
HETATM   19  C   UNL     1      -3.437  -0.657  -0.240  1.00  0.00    -0.063 C 
HETATM   20  C   UNL     1       1.749   0.653   1.777  1.00  0.00     0.019 C 
HETATM   21  C   UNL     1      -3.353   1.850  -0.271  1.00  0.00     0.022 C 
HETATM   22  C   UNL     1       5.237   0.607  -1.419  1.00  0.00     0.114 C 
HETATM   23  C   UNL     1      -2.680   0.592   1.808  1.00  0.00     0.020 C 
HETATM   24  C   UNL     1       5.429   0.833   0.050  1.00  0.00     0.259 C 
HETATM   25  C   UNL     1      -4.767  -0.597  -0.448  1.00  0.00     0.054 C 
HETATM   26  C   UNL     1      -4.833   1.920   0.088  1.00  0.00     0.084 C 
HETATM   27  C   UNL     1      -5.556   0.637  -0.229  1.00  0.00     0.149 C 
ENDROOT
TORSDOF 0
