REMARK  8 active torsions:
REMARK  status: ('A' for Active; 'I' for Inactive)
REMARK    1  A    between atoms: S_1  and  N_8 
REMARK    2  A    between atoms: S_1  and  C_23 
REMARK    3  A    between atoms: N_9  and  C_15 
REMARK       I    between atoms: N_9  and  C_20 
REMARK    4  A    between atoms: N_10  and  C_19 
REMARK       I    between atoms: N_10  and  C_27 
REMARK    5  A    between atoms: C_19  and  C_20 
REMARK    6  A    between atoms: C_19  and  C_21 
REMARK    7  A    between atoms: C_21  and  C_22 
REMARK    8  A    between atoms: C_27  and  C_29 
ROOT
HETATM    1  O   UNL     1      -1.097   0.008  -1.282  1.00  0.00    -0.271 OA
HETATM    2  N   UNL     1       0.220  -0.889   0.407  1.00  0.00    -0.348 N 
HETATM    3  C   UNL     1      -0.939  -0.780  -0.352  1.00  0.00     0.241 C 
HETATM    4  H   UNL     1       0.244  -1.560   1.170  1.00  0.00     0.163 HD
ENDROOT
BRANCH   2   5
HETATM    5  C   UNL     1       1.391  -0.079   0.189  1.00  0.00     0.156 C 
HETATM    6  C   UNL     1       1.366   1.175   1.054  1.00  0.00     0.035 C 
HETATM    7  C   UNL     1       2.365   2.240   0.598  1.00  0.00     0.028 C 
HETATM    8  C   UNL     1       3.845   1.832   0.563  1.00  0.00     0.092 C 
HETATM    9  N   UNL     1       4.073   0.803  -0.508  1.00  0.00    -0.294 N 
HETATM   10  C   UNL     1       4.425   1.437   1.916  1.00  0.00     0.033 C 
HETATM   11  C   UNL     1       3.898  -0.623  -0.155  1.00  0.00     0.216 C 
HETATM   12  C   UNL     1       2.601  -0.926   0.539  1.00  0.00     0.167 C 
HETATM   13  O   UNL     1       2.542  -1.846   1.357  1.00  0.00    -0.294 OA
BRANCH   9  14
HETATM   14  S   UNL     1       5.368   1.125  -1.590  1.00  0.00     0.279 S 
HETATM   15  O   UNL     1       5.527   2.556  -1.716  1.00  0.00    -0.199 OA
HETATM   16  O   UNL     1       5.220   0.281  -2.755  1.00  0.00    -0.199 OA
BRANCH  14  17
HETATM   17  C   UNL     1       6.719   0.509  -0.637  1.00  0.00     0.171 A 
HETATM   18  N   UNL     1       7.275   1.448   0.162  1.00  0.00    -0.248 NA
HETATM   19  C   UNL     1       8.318   1.047   0.923  1.00  0.00     0.118 A 
HETATM   20  C   UNL     1       8.828  -0.241   0.923  1.00  0.00     0.019 A 
HETATM   21  C   UNL     1       8.230  -1.178   0.087  1.00  0.00     0.004 A 
HETATM   22  C   UNL     1       7.155  -0.804  -0.711  1.00  0.00     0.046 A 
ENDBRANCH  14  17
ENDBRANCH   9  14
ENDBRANCH   2   5
BRANCH   3  23
HETATM   23  C   UNL     1      -2.038  -1.719   0.135  1.00  0.00     0.177 C 
BRANCH  23  24
HETATM   24  N   UNL     1      -3.289  -1.021  -0.010  1.00  0.00    -0.342 N 
HETATM   25  C   UNL     1      -3.787  -0.170   0.977  1.00  0.00     0.276 C 
HETATM   26  O   UNL     1      -3.179   0.029   2.031  1.00  0.00    -0.265 OA
HETATM   27  H   UNL     1      -3.793  -1.105  -0.888  1.00  0.00     0.163 HD
BRANCH  25  28
HETATM   28  C   UNL     1      -5.060   0.497   0.668  1.00  0.00     0.144 A 
HETATM   29  O   UNL     1      -5.638   0.234  -0.533  1.00  0.00    -0.304 OA
HETATM   30  C   UNL     1      -6.790   0.958  -0.585  1.00  0.00     0.086 A 
HETATM   31  C   UNL     1      -6.953   1.689   0.588  1.00  0.00     0.001 A 
HETATM   32  C   UNL     1      -7.690   0.979  -1.649  1.00  0.00     0.038 A 
HETATM   33  C   UNL     1      -5.825   1.381   1.393  1.00  0.00     0.057 A 
HETATM   34  C   UNL     1      -8.091   2.503   0.720  1.00  0.00     0.014 A 
HETATM   35  C   UNL     1      -9.014   2.545  -0.335  1.00  0.00     0.001 A 
HETATM   36  C   UNL     1      -8.815   1.795  -1.497  1.00  0.00     0.003 A 
ENDBRANCH  25  28
ENDBRANCH  23  24
BRANCH  23  37
HETATM   37  C   UNL     1      -2.008  -3.029  -0.663  1.00  0.00     0.038 C 
BRANCH  37  38
HETATM   38  C   UNL     1      -3.110  -4.041  -0.287  1.00  0.00    -0.020 C 
HETATM   39  C   UNL     1      -2.977  -4.425   1.190  1.00  0.00     0.009 C 
HETATM   40  C   UNL     1      -3.064  -5.301  -1.153  1.00  0.00     0.009 C 
ENDBRANCH  37  38
ENDBRANCH  23  37
ENDBRANCH   3  23
TORSDOF 8
