REMARK  9 active torsions:
REMARK  status: ('A' for Active; 'I' for Inactive)
REMARK    1  A    between atoms: O_2  and  C_12 
REMARK    2  A    between atoms: O_3  and  C_15 
REMARK    3  A    between atoms: O_3  and  C_23 
REMARK    4  A    between atoms: N_4  and  C_6 
REMARK    5  A    between atoms: N_4  and  C_10 
REMARK    6  A    between atoms: C_6  and  C_7 
REMARK    7  A    between atoms: C_7  and  C_11 
REMARK    8  A    between atoms: C_10  and  C_12 
REMARK    9  A    between atoms: C_12  and  C_15 
ROOT
HETATM    1 CL   UNL     1       2.088  -4.275   0.645  1.00  0.00    -0.083 Cl
HETATM    2  N   UNL     1       1.461  -1.186   2.627  1.00  0.00    -0.191 NA
HETATM    3  C   UNL     1       3.759  -0.664   0.053  1.00  0.00     0.091 A 
HETATM    4  C   UNL     1       2.980  -1.686   0.588  1.00  0.00     0.099 A 
HETATM    5  C   UNL     1       4.585  -0.907  -1.041  1.00  0.00     0.038 A 
HETATM    6  C   UNL     1       3.028  -2.962   0.026  1.00  0.00     0.057 A 
HETATM    7  C   UNL     1       4.633  -2.183  -1.604  1.00  0.00     0.005 A 
HETATM    8  C   UNL     1       3.854  -3.210  -1.071  1.00  0.00     0.025 A 
HETATM    9  C   UNL     1       2.139  -1.409   1.717  1.00  0.00     0.104 C 
ENDROOT
BRANCH   3  10
HETATM   10  O   UNL     1       3.736   0.598   0.584  1.00  0.00    -0.347 OA
BRANCH  10  11
HETATM   11  C   UNL     1       3.985   1.675  -0.314  1.00  0.00     0.209 C 
BRANCH  11  12
HETATM   12  C   UNL     1       3.216   2.905   0.166  1.00  0.00     0.170 C 
BRANCH  12  13
HETATM   13  O   UNL     1       3.652   3.225   1.490  1.00  0.00    -0.392 OA
HETATM   14  H   UNL     1       3.198   4.043   1.758  1.00  0.00     0.210 HD
ENDBRANCH  12  13
BRANCH  12  15
HETATM   15  C   UNL     1       1.700   2.698   0.198  1.00  0.00     0.304 C 
BRANCH  15  16
HETATM   16  N   UNL     1       1.173   2.329  -1.102  1.00  0.00     0.095 N 
HETATM   17  H   UNL     1       1.408   3.046  -1.788  1.00  0.00     0.317 HD
BRANCH  16  18
HETATM   18  C   UNL     1      -0.289   2.153  -1.030  1.00  0.00     0.154 C 
HETATM   19  C   UNL     1      -0.889   3.511  -0.642  1.00  0.00     0.049 C 
HETATM   20  C   UNL     1      -0.767   1.756  -2.434  1.00  0.00     0.049 C 
BRANCH  18  21
HETATM   21  C   UNL     1      -0.602   1.050   0.028  1.00  0.00     0.079 C 
BRANCH  21  22
HETATM   22  C   UNL     1      -2.035   0.687   0.223  1.00  0.00    -0.055 A 
HETATM   23  C   UNL     1      -2.606  -0.332  -0.540  1.00  0.00     0.019 A 
HETATM   24  C   UNL     1      -3.955  -0.686  -0.368  1.00  0.00    -0.025 A 
HETATM   25  C   UNL     1      -4.734   0.002   0.592  1.00  0.00    -0.026 A 
HETATM   26  C   UNL     1      -4.546  -1.708  -1.128  1.00  0.00     0.012 A 
HETATM   27  C   UNL     1      -4.142   1.025   1.351  1.00  0.00     0.013 A 
HETATM   28  C   UNL     1      -6.082  -0.352   0.763  1.00  0.00     0.012 A 
HETATM   29  C   UNL     1      -2.802   1.363   1.167  1.00  0.00     0.008 A 
HETATM   30  C   UNL     1      -6.654  -1.370   0.000  1.00  0.00     0.001 A 
HETATM   31  C   UNL     1      -5.887  -2.047  -0.944  1.00  0.00     0.001 A 
ENDBRANCH  21  22
ENDBRANCH  18  21
ENDBRANCH  16  18
ENDBRANCH  15  16
ENDBRANCH  12  15
ENDBRANCH  11  12
ENDBRANCH  10  11
ENDBRANCH   3  10
TORSDOF 9
