REMARK  14 active torsions:
REMARK  status: ('A' for Active; 'I' for Inactive)
REMARK    1  A    between atoms: O_1  and  C_23 
REMARK    2  A    between atoms: O_2  and  C_31 
REMARK    3  A    between atoms: O_2  and  C_33 
REMARK    4  A    between atoms: O_3  and  C_29 
REMARK    5  A    between atoms: O_4  and  C_30 
REMARK    6  A    between atoms: O_5  and  C_35 
REMARK    7  A    between atoms: C_7  and  C_12 
REMARK    8  A    between atoms: C_12  and  C_17 
REMARK    9  A    between atoms: C_17  and  C_20 
REMARK   10  A    between atoms: C_19  and  C_22 
REMARK   11  A    between atoms: C_20  and  C_21 
REMARK   12  A    between atoms: C_21  and  C_23 
REMARK   13  A    between atoms: C_33  and  C_34 
REMARK   14  A    between atoms: C_34  and  C_35 
ROOT
HETATM    1  C   UNL     1       2.414   1.645   0.028  1.00  0.00    -0.033 C 
HETATM    2  C   UNL     1       3.600   0.710   0.379  1.00  0.00    -0.002 C 
HETATM    3  C   UNL     1       1.377   0.584  -0.418  1.00  0.00     0.023 C 
HETATM    4  C   UNL     1       2.940  -0.477   1.112  1.00  0.00     0.006 C 
HETATM    5  C   UNL     1       1.467  -0.492   0.669  1.00  0.00     0.010 C 
HETATM    6  C   UNL     1       2.707   2.617  -1.140  1.00  0.00     0.010 C 
HETATM    7  C   UNL     1       0.055   1.208  -0.782  1.00  0.00    -0.075 C 
HETATM    8  C   UNL     1       1.955   2.461   1.264  1.00  0.00     0.016 C 
HETATM    9  C   UNL     1       1.558   2.716  -2.162  1.00  0.00     0.005 C 
HETATM   10  C   UNL     1       0.161   2.501  -1.564  1.00  0.00     0.034 C 
HETATM   11  C   UNL     1      -1.139   0.686  -0.466  1.00  0.00     0.004 C 
ENDROOT
BRANCH  11  12
HETATM   12  C   UNL     1      -2.391   1.297  -0.836  1.00  0.00     0.008 C 
HETATM   13  C   UNL     1      -3.587   0.775  -0.521  1.00  0.00    -0.048 C 
HETATM   14  C   UNL     1      -4.877   1.469  -0.887  1.00  0.00     0.073 C 
HETATM   15  C   UNL     1      -3.736  -0.469   0.232  1.00  0.00    -0.030 C 
HETATM   16  C   UNL     1      -5.813   1.595   0.318  1.00  0.00     0.154 C 
HETATM   17  C   UNL     1      -6.048   0.242   1.005  1.00  0.00     0.183 C 
HETATM   18  C   UNL     1      -4.721  -0.435   1.384  1.00  0.00     0.182 C 
HETATM   19  C   UNL     1      -3.091  -1.597  -0.105  1.00  0.00     0.022 C 
BRANCH  16  20
HETATM   20  O   UNL     1      -7.064   2.134  -0.095  1.00  0.00    -0.393 OA
HETATM   21  H   UNL     1      -6.889   2.991  -0.520  1.00  0.00     0.210 HD
ENDBRANCH  16  20
BRANCH  17  22
HETATM   22  O   UNL     1      -6.807  -0.629   0.165  1.00  0.00    -0.380 OA
BRANCH  22  23
HETATM   23  C   UNL     1      -7.097  -1.853   0.822  1.00  0.00     0.170 C 
BRANCH  23  24
HETATM   24  C   UNL     1      -7.924  -2.744  -0.091  1.00  0.00     0.052 C 
BRANCH  24  25
HETATM   25  C   UNL     1      -7.204  -3.051  -1.394  1.00  0.00     0.166 C 
BRANCH  25  26
HETATM   26  O   UNL     1      -5.991  -3.729  -1.099  1.00  0.00    -0.401 OA
HETATM   27  H   UNL     1      -5.552  -3.912  -1.948  1.00  0.00     0.209 HD
ENDBRANCH  25  26
ENDBRANCH  24  25
ENDBRANCH  23  24
ENDBRANCH  22  23
ENDBRANCH  17  22
BRANCH  18  28
HETATM   28  O   UNL     1      -4.113   0.281   2.459  1.00  0.00    -0.388 OA
HETATM   29  H   UNL     1      -3.870   1.170   2.153  1.00  0.00     0.210 HD
ENDBRANCH  18  28
ENDBRANCH  11  12
BRANCH   2  30
HETATM   30  C   UNL     1       4.744   1.331   1.169  1.00  0.00    -0.014 C 
HETATM   31  C   UNL     1       5.308   2.552   0.437  1.00  0.00     0.010 C 
BRANCH  30  32
HETATM   32  C   UNL     1       5.851   0.315   1.521  1.00  0.00     0.005 C 
BRANCH  32  33
HETATM   33  C   UNL     1       6.492  -0.395   0.321  1.00  0.00     0.003 C 
BRANCH  33  34
HETATM   34  C   UNL     1       7.538  -1.414   0.787  1.00  0.00     0.037 C 
BRANCH  34  35
HETATM   35  C   UNL     1       8.203  -2.242  -0.332  1.00  0.00     0.051 C 
HETATM   36  C   UNL     1       9.178  -3.288   0.213  1.00  0.00     0.045 C 
HETATM   37  C   UNL     1       8.897  -1.361  -1.371  1.00  0.00     0.045 C 
BRANCH  35  38
HETATM   38  O   UNL     1       7.158  -2.942  -1.023  1.00  0.00    -0.391 OA
HETATM   39  H   UNL     1       7.565  -3.469  -1.731  1.00  0.00     0.210 HD
ENDBRANCH  35  38
ENDBRANCH  34  35
ENDBRANCH  33  34
ENDBRANCH  32  33
ENDBRANCH  30  32
ENDBRANCH   2  30
TORSDOF 14
