REMARK  11 active torsions:
REMARK  status: ('A' for Active; 'I' for Inactive)
REMARK    1  A    between atoms: O_1  and  C_8 
REMARK    2  A    between atoms: O_2  and  C_9 
REMARK    3  A    between atoms: O_3  and  C_10 
REMARK    4  A    between atoms: O_4  and  C_11 
REMARK    5  A    between atoms: O_5  and  C_12 
REMARK    6  A    between atoms: O_6  and  C_13 
REMARK    7  A    between atoms: C_8  and  C_9 
REMARK    8  A    between atoms: C_8  and  C_10 
REMARK    9  A    between atoms: C_9  and  C_11 
REMARK   10  A    between atoms: C_10  and  C_12 
REMARK   11  A    between atoms: C_11  and  C_13 
ROOT
HETATM    1  C   UNL     1      -0.388   0.543  -0.493  1.00  0.00     0.188 C 
ENDROOT
BRANCH   1   2
HETATM    2  O   UNL     1      -1.162   1.676  -0.900  1.00  0.00    -0.390 OA
HETATM    3  H   UNL     1      -0.635   2.170  -1.552  1.00  0.00     0.210 HD
ENDBRANCH   1   2
BRANCH   1   4
HETATM    4  C   UNL     1       0.973   1.055   0.030  1.00  0.00     0.180 C 
BRANCH   4   5
HETATM    5  O   UNL     1       1.594   1.814  -1.002  1.00  0.00    -0.390 OA
HETATM    6  H   UNL     1       2.394   2.220  -0.629  1.00  0.00     0.210 HD
ENDBRANCH   4   5
BRANCH   4   7
HETATM    7  C   UNL     1       1.900  -0.092   0.492  1.00  0.00     0.173 C 
BRANCH   7   8
HETATM    8  O   UNL     1       3.116   0.459   0.996  1.00  0.00    -0.391 OA
HETATM    9  H   UNL     1       3.619   0.815   0.244  1.00  0.00     0.210 HD
ENDBRANCH   7   8
BRANCH   7  10
HETATM   10  C   UNL     1       2.232  -1.114  -0.600  1.00  0.00     0.198 C 
BRANCH  10  11
HETATM   11  O   UNL     1       3.074  -2.152  -0.119  1.00  0.00    -0.398 OA
HETATM   12  H   UNL     1       2.616  -2.579   0.624  1.00  0.00     0.209 HD
ENDBRANCH  10  11
ENDBRANCH   7  10
ENDBRANCH   4   7
ENDBRANCH   1   4
BRANCH   1  13
HETATM   13  C   UNL     1      -1.220  -0.256   0.528  1.00  0.00     0.246 C 
BRANCH  13  14
HETATM   14  O   UNL     1      -1.407   0.519   1.704  1.00  0.00    -0.382 OA
HETATM   15  H   UNL     1      -1.818  -0.057   2.372  1.00  0.00     0.210 HD
ENDBRANCH  13  14
BRANCH  13  16
HETATM   16  C   UNL     1      -2.578  -0.669  -0.005  1.00  0.00     0.172 C 
HETATM   17  O   UNL     1      -3.650  -0.304   0.461  1.00  0.00    -0.648 OA
BRANCH  16  18
HETATM   18  O   UNL     1      -2.483  -1.478  -1.091  1.00  0.00    -0.774 OA
HETATM   19  H   UNL     1      -3.365  -1.730  -1.438  1.00  0.00     0.167 HD
ENDBRANCH  16  18
ENDBRANCH  13  16
ENDBRANCH   1  13
TORSDOF 11
